# Generated by pormake.
# Topology att, (4,4)-cn, num edge types: 3
# Building blocks:
#     Node 0, Type 0, BuildingBlock: N207, # of connection points: 4
#     Node 1, Type 0, BuildingBlock: N207, # of connection points: 4
#     Node 2, Type 0, BuildingBlock: N207, # of connection points: 4
#     Node 3, Type 0, BuildingBlock: N207, # of connection points: 4
#     Node 4, Type 0, BuildingBlock: N207, # of connection points: 4
#     Node 5, Type 0, BuildingBlock: N207, # of connection points: 4
#     Node 6, Type 0, BuildingBlock: N207, # of connection points: 4
#     Node 7, Type 0, BuildingBlock: N207, # of connection points: 4
#     Node 8, Type 1, BuildingBlock: N492, # of connection points: 4
#     Node 9, Type 1, BuildingBlock: N492, # of connection points: 4
#     Node 10, Type 1, BuildingBlock: N492, # of connection points: 4
#     Node 11, Type 1, BuildingBlock: N492, # of connection points: 4
#     Edge 12, Type (1, 1), BuildingBlock: E104, # of connection points: 2
#     Edge 13, Type (1, 1), BuildingBlock: E104, # of connection points: 2
#     Edge 14, Type (0, 0), BuildingBlock: E182, # of connection points: 2
#     Edge 15, Type (0, 0), BuildingBlock: E182, # of connection points: 2
#     Edge 16, Type (0, 0), BuildingBlock: E182, # of connection points: 2
#     Edge 17, Type (0, 0), BuildingBlock: E182, # of connection points: 2
#     Edge 18, Type (0, 0), BuildingBlock: E182, # of connection points: 2
#     Edge 19, Type (0, 0), BuildingBlock: E182, # of connection points: 2
#     Edge 20, Type (0, 0), BuildingBlock: E182, # of connection points: 2
#     Edge 21, Type (0, 0), BuildingBlock: E182, # of connection points: 2
#     Edge 22, Type (1, 1), BuildingBlock: E104, # of connection points: 2
#     Edge 23, Type (1, 1), BuildingBlock: E104, # of connection points: 2
#     Edge 24, Type (0, 0), BuildingBlock: E182, # of connection points: 2
#     Edge 25, Type (0, 0), BuildingBlock: E182, # of connection points: 2
#     Edge 26, Type (0, 0), BuildingBlock: E182, # of connection points: 2
#     Edge 27, Type (0, 0), BuildingBlock: E182, # of connection points: 2
#     Edge 28, Type (0, 1), BuildingBlock: E102, # of connection points: 2
#     Edge 29, Type (0, 1), BuildingBlock: E102, # of connection points: 2
#     Edge 30, Type (0, 1), BuildingBlock: E102, # of connection points: 2
#     Edge 31, Type (0, 1), BuildingBlock: E102, # of connection points: 2
#     Edge 32, Type (0, 1), BuildingBlock: E102, # of connection points: 2
#     Edge 33, Type (0, 1), BuildingBlock: E102, # of connection points: 2
#     Edge 34, Type (0, 1), BuildingBlock: E102, # of connection points: 2
#     Edge 35, Type (0, 1), BuildingBlock: E102, # of connection points: 2
# Relax obj value: 0.092
# Max RMSD: 0.229
# Mean RMSD: 0.217
data_att+N207+N492+E182+E102+E104
_symmetry_space_group_name_H-M    P1
_symmetry_Int_Tables_number       1
_symmetry_cell_setting            triclinic
loop_
_symmetry_equiv_pos_as_xyz
'x, y, z'
_cell_length_a     55.543
_cell_length_b     37.371
_cell_length_c     22.025
_cell_angle_alpha  90.000
_cell_angle_beta   89.997
_cell_angle_gamma  90.000
loop_
_atom_site_label
_atom_site_type_symbol
_atom_site_fract_x
_atom_site_fract_y
_atom_site_fract_z
_atom_type_partial_charge
Zn0 Zn 0.81877 0.29836 0.64465 0.00000
H1 H 0.84413 0.43039 0.70820 0.00000
N2 N 0.82100 0.34930 0.68043 0.00000
H3 H 0.01928 0.18418 0.54091 0.00000
C4 C 0.86254 0.36263 0.65502 0.00000
C5 C 0.84116 0.37206 0.67933 0.00000
N6 N 0.96412 0.14812 0.54373 0.00000
C7 C 0.96947 0.21232 0.55289 0.00000
C8 C 0.97855 0.17894 0.54810 0.00000
C9 C 0.00334 0.16496 0.54103 0.00000
C10 C 0.86762 0.27399 0.60066 0.00000
C11 C 0.89206 0.28855 0.59240 0.00000
C12 C 0.89407 0.32109 0.61207 0.00000
C13 C 0.00250 0.13293 0.53619 0.00000
C14 C 0.90620 0.21975 0.56380 0.00000
C15 C 0.91453 0.25696 0.57093 0.00000
C16 C 0.93779 0.25963 0.57031 0.00000
N17 N 0.92813 0.09109 0.54573 0.00000
C18 C 0.98306 0.11559 0.53667 0.00000
C19 C 0.90840 0.06779 0.55202 0.00000
C20 C 0.88545 0.07918 0.55758 0.00000
C21 C 0.95113 0.06499 0.53845 0.00000
C22 C 0.91932 0.03182 0.54572 0.00000
C23 C 0.94073 0.03505 0.53963 0.00000
C24 C 0.87649 0.17268 0.56546 0.00000
C25 C 0.85210 0.15804 0.57441 0.00000
N26 N 0.81779 0.24694 0.62771 0.00000
C27 C 0.85180 0.12338 0.57510 0.00000
C28 C 0.79953 0.22133 0.63851 0.00000
H29 H 0.79580 0.16055 0.62134 0.00000
H30 H 0.73229 0.25316 0.71444 0.00000
N31 N 0.78501 0.29227 0.68244 0.00000
C32 C 0.77852 0.22949 0.65970 0.00000
C33 C 0.77102 0.26091 0.68324 0.00000
C34 C 0.74783 0.27288 0.70952 0.00000
C35 C 0.74935 0.30407 0.72242 0.00000
C36 C 0.76806 0.32231 0.71330 0.00000
C37 C 0.86055 0.23945 0.58970 0.00000
C38 C 0.83791 0.22691 0.60231 0.00000
C39 C 0.82963 0.18963 0.59588 0.00000
C40 C 0.83185 0.40602 0.70483 0.00000
C41 C 0.80808 0.18483 0.61686 0.00000
C42 C 0.81112 0.40195 0.71898 0.00000
C43 C 0.80000 0.37291 0.71152 0.00000
H44 H 0.90744 0.00695 0.54715 0.00000
H45 H 0.90962 0.34091 0.61499 0.00000
N46 N 0.85309 0.30287 0.62574 0.00000
C47 C 0.86920 0.33172 0.63463 0.00000
H48 H 0.95089 0.28290 0.57557 0.00000
N49 N 0.92766 0.19804 0.55451 0.00000
C50 C 0.94729 0.22195 0.56004 0.00000
N51 N 0.89237 0.14211 0.55648 0.00000
Zn52 Zn 0.92699 0.14623 0.54129 0.00000
C53 C 0.97205 0.08332 0.53259 0.00000
C54 C 0.88289 0.20805 0.56836 0.00000
H55 H 0.83707 0.10253 0.58192 0.00000
C56 C 0.77904 0.35463 0.71693 0.00000
C57 C 0.87762 0.11156 0.56393 0.00000
Zn58 Zn 0.83427 0.73359 0.69343 0.00000
H59 H 0.74588 0.77167 0.76025 0.00000
N60 N 0.80027 0.73717 0.73081 0.00000
H61 H 0.90973 0.03070 0.57669 0.00000
C62 C 0.79100 0.79861 0.70395 0.00000
C63 C 0.78490 0.76707 0.72955 0.00000
N64 N 0.93416 0.94884 0.58082 0.00000
C65 C 0.89102 0.95675 0.59190 0.00000
C66 C 0.91342 0.97026 0.58557 0.00000
C67 C 0.92270 0.00706 0.57690 0.00000
C68 C 0.85019 0.80576 0.64639 0.00000
C69 C 0.84026 0.84196 0.63750 0.00000
C70 C 0.81852 0.84508 0.65817 0.00000
C71 C 0.94421 0.00583 0.57101 0.00000
C72 C 0.88628 0.86282 0.60595 0.00000
C73 C 0.86128 0.87520 0.61395 0.00000
C74 C 0.85942 0.90974 0.61236 0.00000
N75 N 0.97263 0.89551 0.58255 0.00000
C76 C 0.95593 0.97699 0.57180 0.00000
C77 C 0.98841 0.86632 0.58894 0.00000
C78 C 0.98085 0.83224 0.59593 0.00000
C79 C 0.99007 0.92967 0.57333 0.00000
C80 C 0.01253 0.88256 0.58093 0.00000
C81 C 0.01025 0.91430 0.57398 0.00000
C82 C 0.91804 0.81880 0.60738 0.00000
C83 C 0.92802 0.78269 0.61695 0.00000
N84 N 0.86873 0.73207 0.67480 0.00000
C85 C 0.95134 0.78233 0.61649 0.00000
C86 C 0.88609 0.70512 0.68557 0.00000
H87 H 0.92685 0.69952 0.66652 0.00000
H88 H 0.86545 0.60594 0.76562 0.00000
N89 N 0.83875 0.68384 0.73254 0.00000
C90 C 0.88082 0.67410 0.70799 0.00000
C91 C 0.85989 0.66313 0.73292 0.00000
C92 C 0.85210 0.62893 0.76065 0.00000
C93 C 0.83122 0.63125 0.77454 0.00000
C94 C 0.81883 0.65893 0.76518 0.00000
C95 C 0.87335 0.79522 0.63459 0.00000
C96 C 0.88195 0.76174 0.64781 0.00000
C97 C 0.90700 0.74946 0.64050 0.00000
C98 C 0.76228 0.75343 0.75662 0.00000
C99 C 0.91045 0.71767 0.66230 0.00000
C100 C 0.76518 0.72279 0.77157 0.00000
C101 C 0.78469 0.70625 0.76365 0.00000
H102 H 0.02929 0.86497 0.58207 0.00000
H103 H 0.80517 0.86818 0.66105 0.00000
N104 N 0.83099 0.78437 0.67311 0.00000
C105 C 0.81162 0.80835 0.68222 0.00000
H106 H 0.84378 0.92921 0.61780 0.00000
N107 N 0.90075 0.89467 0.59495 0.00000
C108 C 0.88466 0.92384 0.60039 0.00000
N109 N 0.93849 0.84237 0.59664 0.00000
Zn110 Zn 0.93550 0.89365 0.58001 0.00000
C111 C 0.97763 0.96065 0.56713 0.00000
C112 C 0.89425 0.82826 0.61118 0.00000
H113 H 0.96546 0.76055 0.62327 0.00000
C114 C 0.79709 0.67520 0.76939 0.00000
C115 C 0.95914 0.82061 0.60374 0.00000
Zn116 Zn 0.31878 0.70165 0.35540 0.00000
H117 H 0.34414 0.56962 0.29186 0.00000
N118 N 0.32101 0.65070 0.31963 0.00000
H119 H 0.51929 0.81583 0.45911 0.00000
C120 C 0.36255 0.63738 0.34504 0.00000
C121 C 0.34117 0.62794 0.32073 0.00000
N122 N 0.46413 0.85189 0.45630 0.00000
C123 C 0.46948 0.78769 0.44714 0.00000
C124 C 0.47855 0.82107 0.45192 0.00000
C125 C 0.50335 0.83505 0.45899 0.00000
C126 C 0.36762 0.72602 0.39939 0.00000
C127 C 0.39206 0.71146 0.40765 0.00000
C128 C 0.39407 0.67892 0.38798 0.00000
C129 C 0.50250 0.86708 0.46384 0.00000
C130 C 0.40620 0.78026 0.43624 0.00000
C131 C 0.41454 0.74305 0.42911 0.00000
C132 C 0.43779 0.74038 0.42973 0.00000
N133 N 0.42813 0.90892 0.45429 0.00000
C134 C 0.48306 0.88442 0.46335 0.00000
C135 C 0.40841 0.93222 0.44801 0.00000
C136 C 0.38545 0.92083 0.44246 0.00000
C137 C 0.45113 0.93502 0.46157 0.00000
C138 C 0.41933 0.96819 0.45431 0.00000
C139 C 0.44073 0.96496 0.46039 0.00000
C140 C 0.37649 0.82733 0.43458 0.00000
C141 C 0.35211 0.84197 0.42563 0.00000
N142 N 0.31779 0.75307 0.37234 0.00000
C143 C 0.35180 0.87663 0.42494 0.00000
C144 C 0.29954 0.77868 0.36154 0.00000
H145 H 0.29580 0.83946 0.37871 0.00000
H146 H 0.23230 0.74685 0.28562 0.00000
N147 N 0.28502 0.70773 0.31762 0.00000
C148 C 0.27853 0.77052 0.34035 0.00000
C149 C 0.27102 0.73910 0.31682 0.00000
C150 C 0.24783 0.72712 0.29055 0.00000
C151 C 0.24935 0.69594 0.27764 0.00000
C152 C 0.26807 0.67769 0.28676 0.00000
C153 C 0.36055 0.76056 0.41035 0.00000
C154 C 0.33791 0.77310 0.39774 0.00000
C155 C 0.32964 0.81038 0.40417 0.00000
C156 C 0.33186 0.59398 0.29523 0.00000
C157 C 0.30809 0.81517 0.38319 0.00000
C158 C 0.31113 0.59805 0.28109 0.00000
C159 C 0.30001 0.62709 0.28854 0.00000
H160 H 0.40744 0.99306 0.45288 0.00000
H161 H 0.40962 0.65910 0.38506 0.00000
N162 N 0.35309 0.69713 0.37431 0.00000
C163 C 0.36920 0.66829 0.36542 0.00000
H164 H 0.45089 0.71711 0.42447 0.00000
N165 N 0.42767 0.80197 0.44553 0.00000
C166 C 0.44729 0.77806 0.43999 0.00000
N167 N 0.39237 0.85790 0.44356 0.00000
Zn168 Zn 0.42700 0.85378 0.45875 0.00000
C169 C 0.47205 0.91669 0.46744 0.00000
C170 C 0.38289 0.79196 0.43168 0.00000
H171 H 0.33707 0.89747 0.41812 0.00000
C172 C 0.27905 0.64538 0.28314 0.00000
C173 C 0.37763 0.88845 0.43611 0.00000
Zn174 Zn 0.68122 0.70165 0.64460 0.00000
H175 H 0.65586 0.56962 0.70814 0.00000
N176 N 0.67899 0.65070 0.68037 0.00000
H177 H 0.48071 0.81582 0.54089 0.00000
C178 C 0.63745 0.63738 0.65496 0.00000
C179 C 0.65883 0.62794 0.67927 0.00000
N180 N 0.53587 0.85189 0.54370 0.00000
C181 C 0.53052 0.78769 0.55286 0.00000
C182 C 0.52144 0.82107 0.54808 0.00000
C183 C 0.49665 0.83505 0.54101 0.00000
C184 C 0.63238 0.72602 0.60061 0.00000
C185 C 0.60793 0.71146 0.59235 0.00000
C186 C 0.60593 0.67892 0.61202 0.00000
C187 C 0.49749 0.86708 0.53616 0.00000
C188 C 0.59380 0.78026 0.56376 0.00000
C189 C 0.58546 0.74305 0.57089 0.00000
C190 C 0.56221 0.74038 0.57027 0.00000
N191 N 0.57186 0.90892 0.54571 0.00000
C192 C 0.51694 0.88442 0.53665 0.00000
C193 C 0.59159 0.93222 0.55199 0.00000
C194 C 0.61454 0.92083 0.55754 0.00000
C195 C 0.54887 0.93502 0.53843 0.00000
C196 C 0.58067 0.96819 0.54569 0.00000
C197 C 0.55927 0.96496 0.53961 0.00000
C198 C 0.62350 0.82733 0.56542 0.00000
C199 C 0.64789 0.84197 0.57437 0.00000
N200 N 0.68220 0.75307 0.62766 0.00000
C201 C 0.64819 0.87663 0.57506 0.00000
C202 C 0.70046 0.77868 0.63846 0.00000
H203 H 0.70420 0.83946 0.62129 0.00000
H204 H 0.76770 0.74685 0.71437 0.00000
N205 N 0.71498 0.70774 0.68238 0.00000
C206 C 0.72147 0.77052 0.65965 0.00000
C207 C 0.72898 0.73910 0.68318 0.00000
C208 C 0.75216 0.72712 0.70945 0.00000
C209 C 0.75065 0.69594 0.72235 0.00000
C210 C 0.73193 0.67769 0.71324 0.00000
C211 C 0.63945 0.76056 0.58965 0.00000
C212 C 0.66209 0.77310 0.60226 0.00000
C213 C 0.67036 0.81038 0.59583 0.00000
C214 C 0.66814 0.59398 0.70477 0.00000
C215 C 0.69191 0.81517 0.61681 0.00000
C216 C 0.68887 0.59805 0.71891 0.00000
C217 C 0.69999 0.62709 0.71146 0.00000
H218 H 0.59256 0.99305 0.54712 0.00000
H219 H 0.59038 0.65910 0.61494 0.00000
N220 N 0.64691 0.69713 0.62569 0.00000
C221 C 0.63079 0.66829 0.63458 0.00000
H222 H 0.54911 0.71711 0.57554 0.00000
N223 N 0.57233 0.80197 0.55447 0.00000
C224 C 0.55271 0.77806 0.56001 0.00000
N225 N 0.60763 0.85790 0.55644 0.00000
Zn226 Zn 0.57300 0.85378 0.54125 0.00000
C227 C 0.52795 0.91669 0.53256 0.00000
C228 C 0.61711 0.79196 0.56832 0.00000
H229 H 0.66293 0.89747 0.58188 0.00000
C230 C 0.72095 0.64538 0.71686 0.00000
C231 C 0.62237 0.88845 0.56389 0.00000
Zn232 Zn 0.07006 0.14255 0.42349 0.00000
H233 H 0.98358 0.18775 0.49328 0.00000
N234 N 0.03630 0.14864 0.46127 0.00000
H235 H 0.15873 0.43396 0.32598 0.00000
C236 C 0.02981 0.21143 0.43854 0.00000
C237 C 0.02230 0.18001 0.46208 0.00000
N238 N 0.17942 0.34982 0.32457 0.00000
C239 C 0.13674 0.36173 0.33641 0.00000
C240 C 0.15969 0.37313 0.33085 0.00000
C241 C 0.17061 0.40910 0.32456 0.00000
C242 C 0.08920 0.21400 0.38115 0.00000
C243 C 0.08092 0.25128 0.37472 0.00000
C244 C 0.05937 0.25608 0.39570 0.00000
C245 C 0.19201 0.40587 0.31847 0.00000
C246 C 0.12778 0.26824 0.34430 0.00000
C247 C 0.10339 0.28287 0.35325 0.00000
C248 C 0.10309 0.31753 0.35394 0.00000
N249 N 0.21541 0.29279 0.32256 0.00000
C250 C 0.20241 0.37593 0.31729 0.00000
C251 C 0.22984 0.26197 0.32694 0.00000
C252 C 0.22076 0.22859 0.33173 0.00000
C253 C 0.23435 0.32532 0.31551 0.00000
C254 C 0.25463 0.27595 0.31987 0.00000
C255 C 0.25379 0.30798 0.31502 0.00000
C256 C 0.15749 0.22116 0.34264 0.00000
C257 C 0.16582 0.18395 0.34977 0.00000
N258 N 0.10438 0.13804 0.40458 0.00000
C259 C 0.18907 0.18128 0.34915 0.00000
C260 C 0.12049 0.10920 0.41347 0.00000
H261 H 0.16091 0.10000 0.39383 0.00000
H262 H 0.09542 0.01053 0.48704 0.00000
N263 N 0.07229 0.09161 0.45927 0.00000
C264 C 0.11383 0.07829 0.43386 0.00000
C265 C 0.09245 0.06885 0.45816 0.00000
C266 C 0.08314 0.03489 0.48367 0.00000
C267 C 0.06241 0.03896 0.49781 0.00000
C268 C 0.05129 0.06800 0.49036 0.00000
C269 C 0.11184 0.20146 0.36854 0.00000
C270 C 0.11891 0.16693 0.37949 0.00000
C271 C 0.14335 0.15236 0.37123 0.00000
C272 C 0.99990 0.16803 0.48835 0.00000
C273 C 0.14536 0.11983 0.39090 0.00000
C274 C 0.00010 0.13684 0.50126 0.00000
C275 C 0.01935 0.11860 0.49214 0.00000
H276 H 0.27057 0.25673 0.31975 0.00000
H277 H 0.04708 0.28037 0.40018 0.00000
N278 N 0.06908 0.19397 0.40655 0.00000
C279 C 0.05082 0.21959 0.41735 0.00000
H280 H 0.08835 0.33838 0.36076 0.00000
N281 N 0.14365 0.29880 0.33531 0.00000
C282 C 0.12891 0.32936 0.34277 0.00000
N283 N 0.17895 0.24287 0.33335 0.00000
Zn284 Zn 0.17828 0.29468 0.32012 0.00000
C285 C 0.22333 0.35759 0.31142 0.00000
C286 C 0.13417 0.23286 0.34720 0.00000
H287 H 0.20218 0.15802 0.35441 0.00000
C288 C 0.03033 0.08629 0.49577 0.00000
C289 C 0.19858 0.21897 0.33888 0.00000
Zn290 Zn 0.66573 0.26641 0.69346 0.00000
H291 H 0.75411 0.22834 0.76029 0.00000
N292 N 0.69973 0.26283 0.73084 0.00000
H293 H 0.59028 0.96931 0.57670 0.00000
C294 C 0.70900 0.20140 0.70399 0.00000
C295 C 0.71510 0.23293 0.72958 0.00000
N296 N 0.56585 0.05117 0.58083 0.00000
C297 C 0.60898 0.04326 0.59191 0.00000
C298 C 0.58659 0.02975 0.58558 0.00000
C299 C 0.57730 0.99295 0.57690 0.00000
C300 C 0.64982 0.19425 0.64641 0.00000
C301 C 0.65974 0.15805 0.63753 0.00000
C302 C 0.68148 0.15493 0.65820 0.00000
C303 C 0.55580 0.99418 0.57101 0.00000
C304 C 0.61373 0.13719 0.60597 0.00000
C305 C 0.63872 0.12481 0.61397 0.00000
C306 C 0.64058 0.09027 0.61238 0.00000
N307 N 0.52738 0.10450 0.58255 0.00000
C308 C 0.54407 0.02303 0.57181 0.00000
C309 C 0.51160 0.13370 0.58895 0.00000
C310 C 0.51916 0.16777 0.59595 0.00000
C311 C 0.50994 0.07035 0.57334 0.00000
C312 C 0.48748 0.11746 0.58094 0.00000
C313 C 0.48976 0.08572 0.57398 0.00000
C314 C 0.58197 0.18121 0.60740 0.00000
C315 C 0.57199 0.21732 0.61697 0.00000
N316 N 0.63128 0.26794 0.67483 0.00000
C317 C 0.54866 0.21769 0.61651 0.00000
C318 C 0.61391 0.29489 0.68560 0.00000
H319 H 0.57315 0.30049 0.66655 0.00000
H320 H 0.63455 0.39407 0.76566 0.00000
N321 N 0.66125 0.31616 0.73257 0.00000
C322 C 0.61918 0.32591 0.70802 0.00000
C323 C 0.64011 0.33688 0.73295 0.00000
C324 C 0.64790 0.37108 0.76069 0.00000
C325 C 0.66878 0.36876 0.77457 0.00000
C326 C 0.68117 0.34108 0.76522 0.00000
C327 C 0.62665 0.20479 0.63462 0.00000
C328 C 0.61806 0.23827 0.64784 0.00000
C329 C 0.59301 0.25055 0.64053 0.00000
C330 C 0.73772 0.24657 0.75666 0.00000
C331 C 0.58956 0.28234 0.66233 0.00000
C332 C 0.73481 0.27722 0.77161 0.00000
C333 C 0.71531 0.29376 0.76369 0.00000
H334 H 0.47071 0.13504 0.58207 0.00000
H335 H 0.69483 0.13183 0.66108 0.00000
N336 N 0.66901 0.21563 0.67314 0.00000
C337 C 0.68839 0.19166 0.68226 0.00000
H338 H 0.65623 0.07080 0.61783 0.00000
N339 N 0.59925 0.10534 0.59496 0.00000
C340 C 0.61534 0.07617 0.60041 0.00000
N341 N 0.56152 0.15765 0.59666 0.00000
Zn342 Zn 0.56450 0.10636 0.58002 0.00000
C343 C 0.52237 0.03937 0.56713 0.00000
C344 C 0.60576 0.17176 0.61120 0.00000
H345 H 0.53455 0.23946 0.62329 0.00000
C346 C 0.70291 0.32480 0.76943 0.00000
C347 C 0.54087 0.17940 0.60375 0.00000
Zn348 Zn 0.43824 0.10159 0.38502 0.00000
H349 H 0.40706 0.97394 0.45722 0.00000
N350 N 0.43376 0.05185 0.42414 0.00000
H351 H 0.24322 0.23297 0.27364 0.00000
C352 C 0.39169 0.04210 0.39959 0.00000
C353 C 0.41262 0.03113 0.42452 0.00000
N354 N 0.29988 0.26351 0.27412 0.00000
C355 C 0.29167 0.20024 0.28751 0.00000
C356 C 0.28411 0.23431 0.28051 0.00000
C357 C 0.25999 0.25055 0.27250 0.00000
C358 C 0.39056 0.12974 0.33941 0.00000
C359 C 0.36551 0.11746 0.33209 0.00000
C360 C 0.36207 0.08567 0.35389 0.00000
C361 C 0.26227 0.28229 0.26554 0.00000
C362 C 0.35447 0.18680 0.29896 0.00000
C363 C 0.34449 0.15069 0.30853 0.00000
C364 C 0.32117 0.15032 0.30807 0.00000
N365 N 0.33836 0.31684 0.27239 0.00000
C366 C 0.28244 0.29766 0.26490 0.00000
C367 C 0.35910 0.33826 0.27715 0.00000
C368 C 0.38149 0.32474 0.28348 0.00000
C369 C 0.31658 0.34498 0.26337 0.00000
C370 C 0.34981 0.37506 0.26847 0.00000
C371 C 0.32830 0.37383 0.26258 0.00000
C372 C 0.38623 0.23082 0.29754 0.00000
C373 C 0.41123 0.24319 0.30554 0.00000
N374 N 0.44152 0.15237 0.36470 0.00000
C375 C 0.41309 0.27774 0.30394 0.00000
C376 C 0.46089 0.17635 0.37382 0.00000
H377 H 0.46734 0.23618 0.35265 0.00000
H378 H 0.52662 0.13967 0.45185 0.00000
N379 N 0.47223 0.10518 0.42241 0.00000
C380 C 0.48151 0.16661 0.39555 0.00000
C381 C 0.48761 0.13507 0.42115 0.00000
C382 C 0.51023 0.12143 0.44822 0.00000
C383 C 0.50732 0.09079 0.46317 0.00000
C384 C 0.48782 0.07425 0.45525 0.00000
C385 C 0.39916 0.16322 0.32618 0.00000
C386 C 0.42232 0.17376 0.33798 0.00000
C387 C 0.43225 0.20996 0.32909 0.00000
C388 C 0.42040 0.99693 0.45226 0.00000
C389 C 0.45399 0.21308 0.34977 0.00000
C390 C 0.44128 0.99990 0.46614 0.00000
C391 C 0.45368 0.02693 0.45678 0.00000
H392 H 0.36279 0.39870 0.26827 0.00000
H393 H 0.34566 0.06751 0.35811 0.00000
N394 N 0.40378 0.10007 0.36640 0.00000
C395 C 0.38642 0.07312 0.37717 0.00000
H396 H 0.30706 0.12855 0.31485 0.00000
N397 N 0.33402 0.21036 0.28822 0.00000
C398 C 0.31337 0.18860 0.29531 0.00000
N399 N 0.37176 0.26267 0.28653 0.00000
Zn400 Zn 0.33701 0.26165 0.27159 0.00000
C401 C 0.29488 0.32864 0.25870 0.00000
C402 C 0.37826 0.19625 0.30277 0.00000
H403 H 0.42874 0.29721 0.30939 0.00000
C404 C 0.47542 0.04320 0.46100 0.00000
C405 C 0.38785 0.29183 0.29197 0.00000
Zn406 Zn 0.06175 0.89842 0.38504 0.00000
H407 H 0.09294 0.02608 0.45723 0.00000
N408 N 0.06624 0.94817 0.42415 0.00000
H409 H 0.25678 0.76704 0.27368 0.00000
C410 C 0.10831 0.95791 0.39960 0.00000
C411 C 0.08738 0.96888 0.42453 0.00000
N412 N 0.20012 0.73650 0.27416 0.00000
C413 C 0.20833 0.79977 0.28754 0.00000
C414 C 0.21590 0.76569 0.28055 0.00000
C415 C 0.24001 0.74945 0.27254 0.00000
C416 C 0.10944 0.87027 0.33943 0.00000
C417 C 0.13448 0.88255 0.33211 0.00000
C418 C 0.13793 0.91434 0.35391 0.00000
C419 C 0.23774 0.71772 0.26559 0.00000
C420 C 0.14553 0.81321 0.29899 0.00000
C421 C 0.15551 0.84932 0.30856 0.00000
C422 C 0.17883 0.84968 0.30810 0.00000
N423 N 0.16164 0.68317 0.27243 0.00000
C424 C 0.21756 0.70235 0.26494 0.00000
C425 C 0.14090 0.66175 0.27718 0.00000
C426 C 0.11851 0.67527 0.28351 0.00000
C427 C 0.18342 0.65503 0.26341 0.00000
C428 C 0.15019 0.62495 0.26851 0.00000
C429 C 0.17170 0.62618 0.26262 0.00000
C430 C 0.11377 0.76919 0.29756 0.00000
C431 C 0.08877 0.75682 0.30556 0.00000
N432 N 0.05848 0.84764 0.36472 0.00000
C433 C 0.08691 0.72227 0.30397 0.00000
C434 C 0.03910 0.82367 0.37384 0.00000
H435 H 0.03266 0.76383 0.35266 0.00000
H436 H 0.97337 0.86035 0.45186 0.00000
N437 N 0.02776 0.89484 0.42242 0.00000
C438 C 0.01849 0.83341 0.39556 0.00000
C439 C 0.01239 0.86494 0.42116 0.00000
C440 C 0.98977 0.87858 0.44823 0.00000
C441 C 0.99267 0.90923 0.46318 0.00000
C442 C 0.01218 0.92577 0.45526 0.00000
C443 C 0.10084 0.83680 0.32620 0.00000
C444 C 0.07767 0.82625 0.33800 0.00000
C445 C 0.06775 0.79005 0.32911 0.00000
C446 C 0.07959 0.00308 0.45226 0.00000
C447 C 0.04601 0.78693 0.34978 0.00000
C448 C 0.05871 0.00010 0.46615 0.00000
C449 C 0.04631 0.97309 0.45679 0.00000
H450 H 0.13721 0.60131 0.26830 0.00000
H451 H 0.15434 0.93250 0.35813 0.00000
N452 N 0.09621 0.89994 0.36641 0.00000
C453 C 0.11358 0.92690 0.37718 0.00000
H454 H 0.19294 0.87146 0.31488 0.00000
N455 N 0.16598 0.78965 0.28825 0.00000
C456 C 0.18663 0.81140 0.29535 0.00000
N457 N 0.12824 0.73734 0.28656 0.00000
Zn458 Zn 0.16299 0.73836 0.27162 0.00000
C459 C 0.20512 0.67136 0.25874 0.00000
C460 C 0.12174 0.80376 0.30279 0.00000
H461 H 0.07126 0.70280 0.30941 0.00000
C462 C 0.02458 0.95681 0.46101 0.00000
C463 C 0.11215 0.70818 0.29200 0.00000
C464 C 0.87271 0.47687 0.77782 0.00000
Be465 Be 0.88008 0.52183 0.86688 0.00000
O466 O 0.89895 0.51843 0.92253 0.00000
O467 O 0.93507 0.52503 0.87952 0.00000
O468 O 0.88329 0.55793 0.82714 0.00000
O469 O 0.88155 0.60225 0.89495 0.00000
C470 C 0.92145 0.52155 0.92353 0.00000
C471 C 0.88460 0.59008 0.84332 0.00000
O472 O 0.85331 0.52268 0.89585 0.00000
O473 O 0.84880 0.46896 0.93868 0.00000
O474 O 0.88476 0.48827 0.82198 0.00000
O475 O 0.85489 0.49107 0.75436 0.00000
C476 C 0.84155 0.49882 0.92283 0.00000
C477 C 0.37271 0.52311 0.22219 0.00000
Be478 Be 0.38008 0.47815 0.13314 0.00000
O479 O 0.39896 0.48155 0.07748 0.00000
O480 O 0.43507 0.47495 0.12050 0.00000
O481 O 0.38329 0.44205 0.17287 0.00000
O482 O 0.38156 0.39773 0.10506 0.00000
C483 C 0.42145 0.47843 0.07649 0.00000
C484 C 0.38461 0.40990 0.15669 0.00000
O485 O 0.35332 0.47730 0.10417 0.00000
O486 O 0.34881 0.53102 0.06134 0.00000
O487 O 0.38476 0.51171 0.17803 0.00000
O488 O 0.35489 0.50891 0.24566 0.00000
C489 C 0.34156 0.50117 0.07718 0.00000
C490 C 0.62729 0.52311 0.77781 0.00000
Be491 Be 0.61992 0.47815 0.86686 0.00000
O492 O 0.60104 0.48155 0.92252 0.00000
O493 O 0.56493 0.47495 0.87950 0.00000
O494 O 0.61671 0.44205 0.82713 0.00000
O495 O 0.61845 0.39773 0.89494 0.00000
C496 C 0.57855 0.47843 0.92351 0.00000
C497 C 0.61540 0.40990 0.84331 0.00000
O498 O 0.64668 0.47730 0.89583 0.00000
O499 O 0.65119 0.53102 0.93866 0.00000
O500 O 0.61524 0.51171 0.82197 0.00000
O501 O 0.64511 0.50891 0.75434 0.00000
C502 C 0.65845 0.50117 0.92282 0.00000
C503 C 0.12729 0.47687 0.22218 0.00000
Be504 Be 0.11992 0.52183 0.13312 0.00000
O505 O 0.10105 0.51843 0.07747 0.00000
O506 O 0.06493 0.52503 0.12048 0.00000
O507 O 0.11671 0.55793 0.17286 0.00000
O508 O 0.11845 0.60225 0.10505 0.00000
C509 C 0.07855 0.52155 0.07647 0.00000
C510 C 0.11540 0.59008 0.15668 0.00000
O511 O 0.14668 0.52268 0.10415 0.00000
O512 O 0.15119 0.46896 0.06132 0.00000
O513 O 0.11524 0.48827 0.17802 0.00000
O514 O 0.14511 0.49107 0.24564 0.00000
C515 C 0.15845 0.49882 0.07716 0.00000
S516 S 0.78394 0.47201 0.90515 0.00000
C517 C 0.80694 0.50192 0.90522 0.00000
C518 C 0.79853 0.53538 0.90896 0.00000
C519 C 0.77321 0.53735 0.91176 0.00000
C520 C 0.76254 0.50483 0.91156 0.00000
S521 S 0.71564 0.52819 0.91117 0.00000
C522 C 0.69268 0.49828 0.91437 0.00000
C523 C 0.70116 0.46480 0.91611 0.00000
C524 C 0.72650 0.46283 0.91481 0.00000
H525 H 0.80844 0.55542 0.90972 0.00000
H526 H 0.76476 0.55880 0.91353 0.00000
C527 C 0.73715 0.49536 0.91351 0.00000
H528 H 0.69129 0.44476 0.91809 0.00000
H529 H 0.73497 0.44137 0.91482 0.00000
S530 S 0.21640 0.48969 0.04673 0.00000
C531 C 0.19304 0.50096 0.09263 0.00000
C532 C 0.20108 0.51466 0.14494 0.00000
C533 C 0.22639 0.51623 0.14873 0.00000
C534 C 0.23745 0.50429 0.09792 0.00000
S535 S 0.28404 0.51112 0.13821 0.00000
C536 C 0.30738 0.50165 0.09114 0.00000
C537 C 0.29934 0.49096 0.03686 0.00000
C538 C 0.27402 0.49022 0.03253 0.00000
H539 H 0.19094 0.52245 0.17579 0.00000
H540 H 0.23459 0.52458 0.18267 0.00000
C541 C 0.26297 0.50133 0.08388 0.00000
H542 H 0.30947 0.48467 0.00502 0.00000
H543 H 0.26581 0.48284 0.99794 0.00000
N544 N 0.87202 0.00696 0.65323 0.00000
N545 N 0.86612 0.04083 0.63158 0.00000
O546 O 0.88413 0.01226 0.55953 0.00000
C547 C 0.88301 0.99134 0.60897 0.00000
C548 C 0.87339 0.04321 0.57873 0.00000
N549 N 0.35179 0.97076 0.45418 0.00000
N550 N 0.35398 0.00450 0.42799 0.00000
O551 O 0.38827 0.97776 0.41973 0.00000
C552 C 0.37275 0.95626 0.44889 0.00000
C553 C 0.37485 0.00786 0.40945 0.00000
N554 N 0.62932 0.00972 0.52013 0.00000
N555 N 0.62578 0.97339 0.50943 0.00000
O556 O 0.62147 0.98269 0.60554 0.00000
C557 C 0.62693 0.01367 0.57798 0.00000
C558 C 0.62161 0.95872 0.55858 0.00000
N559 N 0.11499 0.04474 0.36042 0.00000
N560 N 0.10911 0.00858 0.35716 0.00000
O561 O 0.12739 0.01764 0.44226 0.00000
C562 C 0.12613 0.04853 0.41138 0.00000
C563 C 0.11655 0.99386 0.40373 0.00000
N564 N 0.74486 0.15986 0.72351 0.00000
N565 N 0.76632 0.17810 0.71314 0.00000
O566 O 0.73763 0.20808 0.67092 0.00000
C567 C 0.72848 0.17852 0.69668 0.00000
C568 C 0.76173 0.20505 0.68280 0.00000
N569 N 0.74326 0.76901 0.73286 0.00000
N570 N 0.76322 0.78824 0.75277 0.00000
O571 O 0.75571 0.80423 0.66052 0.00000
C572 C 0.73982 0.77912 0.67756 0.00000
C573 C 0.77002 0.80766 0.71076 0.00000
N574 N 0.25588 0.76694 0.26987 0.00000
N575 N 0.23601 0.78604 0.24905 0.00000
O576 O 0.24457 0.80514 0.33898 0.00000
C577 C 0.25997 0.77895 0.32379 0.00000
C578 C 0.22986 0.80718 0.28927 0.00000
N579 N 0.25180 0.19817 0.39113 0.00000
N580 N 0.27488 0.19392 0.36760 0.00000
O581 O 0.25028 0.19915 0.29227 0.00000
C582 C 0.23786 0.20059 0.34448 0.00000
C583 C 0.27345 0.19422 0.31163 0.00000
S584 S 0.02917 0.54878 0.05526 0.00000
C585 C 0.05526 0.52843 0.03479 0.00000
C586 C 0.05161 0.50620 0.98810 0.00000
C587 C 0.02751 0.50525 0.96811 0.00000
C588 C 0.01303 0.52775 0.99990 0.00000
S589 S 0.97054 0.50977 0.94328 0.00000
C590 C 0.94469 0.53150 0.96155 0.00000
C591 C 0.94876 0.55603 0.00454 0.00000
C592 C 0.97298 0.55761 0.02352 0.00000
H593 H 0.06380 0.49271 0.97047 0.00000
H594 H 0.02216 0.49066 0.93671 0.00000
C595 C 0.98734 0.53449 0.99324 0.00000
H596 H 0.93677 0.57067 0.02033 0.00000
H597 H 0.97845 0.57296 0.05372 0.00000
S598 S 0.53120 0.44278 0.96661 0.00000
C599 C 0.55524 0.47082 0.96495 0.00000
C600 C 0.54928 0.50302 0.98673 0.00000
C601 C 0.52503 0.50554 0.00515 0.00000
C602 C 0.51282 0.47449 0.99835 0.00000
S603 S 0.46852 0.49907 0.03502 0.00000
C604 C 0.44481 0.47054 0.03974 0.00000
C605 C 0.45132 0.43752 0.02307 0.00000
C606 C 0.47572 0.43479 0.00606 0.00000
H607 H 0.56010 0.52192 0.98955 0.00000
H608 H 0.51818 0.52639 0.02033 0.00000
C609 C 0.48778 0.46606 0.01145 0.00000
H610 H 0.44078 0.41822 0.02281 0.00000
H611 H 0.48275 0.41366 0.99254 0.00000
N612 N 0.00353 0.18682 0.46533 0.00000
N613 N 0.98384 0.19221 0.50335 0.00000
O614 O 0.00550 0.24015 0.50507 0.00000
C615 C 0.01598 0.21587 0.46877 0.00000
C616 C 0.98555 0.22243 0.52567 0.00000
N617 N 0.98950 0.77807 0.52625 0.00000
N618 N 0.00010 0.77962 0.46908 0.00000
O619 O 0.99990 0.83324 0.50542 0.00000
C620 C 0.98904 0.81068 0.54535 0.00000
C621 C 0.00520 0.81116 0.45824 0.00000
N622 N 0.49081 0.73075 0.47863 0.00000
N623 N 0.50397 0.73474 0.53199 0.00000
O624 O 0.50100 0.78668 0.48980 0.00000
C625 C 0.48991 0.76228 0.45494 0.00000
C626 C 0.50970 0.76655 0.53683 0.00000
N627 N 0.50365 0.13998 0.53014 0.00000
N628 N 0.50295 0.14396 0.46733 0.00000
O629 O 0.49710 0.19591 0.50754 0.00000
C630 C 0.49970 0.17151 0.55175 0.00000
C631 C 0.49898 0.17577 0.45586 0.00000
H632 H 0.80350 0.41310 0.83036 0.00000
H633 H 0.79486 0.41084 0.74591 0.00000
I634 I 0.91943 0.41279 0.71733 0.00000
I635 I 0.83802 0.46417 0.87231 0.00000
I636 I 0.81834 0.36040 0.66700 0.00000
N637 N 0.80886 0.41190 0.78185 0.00000
C638 C 0.86668 0.39169 0.70243 0.00000
C639 C 0.88220 0.41365 0.73448 0.00000
C640 C 0.87393 0.43542 0.78242 0.00000
C641 C 0.84974 0.43384 0.79793 0.00000
C642 C 0.83294 0.41172 0.76620 0.00000
C643 C 0.84228 0.39165 0.71862 0.00000
H644 H 0.92735 0.66839 0.93154 0.00000
H645 H 0.94771 0.68471 0.86660 0.00000
I646 I 0.85698 0.60513 0.69654 0.00000
I647 I 0.90959 0.59660 0.93309 0.00000
I648 I 0.92717 0.72213 0.76490 0.00000
N649 N 0.93111 0.67098 0.88224 0.00000
C650 C 0.89363 0.65950 0.74284 0.00000
C651 C 0.88309 0.62675 0.75513 0.00000
C652 C 0.88814 0.60795 0.80913 0.00000
C653 C 0.90368 0.62343 0.85087 0.00000
C654 C 0.91512 0.65713 0.84034 0.00000
C655 C 0.90971 0.67370 0.78555 0.00000
H656 H 0.43918 0.61069 0.15349 0.00000
H657 H 0.42173 0.65468 0.16404 0.00000
I658 I 0.35214 0.54348 0.34603 0.00000
I659 I 0.41442 0.54584 0.12447 0.00000
I660 I 0.40787 0.67760 0.28372 0.00000
N661 N 0.42404 0.62578 0.17415 0.00000
C662 C 0.38193 0.60711 0.30248 0.00000
C663 C 0.37470 0.57278 0.28767 0.00000
C664 C 0.38346 0.55531 0.23543 0.00000
C665 C 0.40008 0.57310 0.19935 0.00000
C666 C 0.40809 0.60862 0.21246 0.00000
C667 C 0.39826 0.62443 0.26388 0.00000
H668 H 0.69708 0.52265 0.71911 0.00000
H669 H 0.68706 0.52766 0.63599 0.00000
I670 I 0.59401 0.62013 0.77681 0.00000
I671 I 0.66377 0.49976 0.81011 0.00000
I672 I 0.67244 0.59647 0.59055 0.00000
N673 N 0.68411 0.53298 0.68502 0.00000
C674 C 0.63504 0.60121 0.69043 0.00000
C675 C 0.62304 0.59030 0.74226 0.00000
C676 C 0.63081 0.56043 0.77606 0.00000
C677 C 0.65128 0.54238 0.75690 0.00000
C678 C 0.66429 0.55245 0.70359 0.00000
C679 C 0.65526 0.58163 0.67184 0.00000
H680 H 0.20244 0.45651 0.24372 0.00000
H681 H 0.19840 0.45414 0.33032 0.00000
I682 I 0.08669 0.38925 0.24079 0.00000
I683 I 0.16629 0.48840 0.16886 0.00000
I684 I 0.17924 0.39044 0.38547 0.00000
N685 N 0.19122 0.44985 0.28386 0.00000
C686 C 0.13508 0.39633 0.30527 0.00000
C687 C 0.12095 0.41048 0.25945 0.00000
C688 C 0.12959 0.43778 0.22102 0.00000
C689 C 0.15299 0.44983 0.22925 0.00000
C690 C 0.16831 0.43621 0.27599 0.00000
C691 C 0.15839 0.40995 0.31296 0.00000
H692 H 0.53477 0.37165 0.84940 0.00000
H693 H 0.52832 0.36480 0.76442 0.00000
I694 I 0.65336 0.36609 0.75602 0.00000
I695 I 0.56818 0.42500 0.88881 0.00000
I696 I 0.55374 0.31051 0.69763 0.00000
N697 N 0.54136 0.36789 0.80225 0.00000
C698 C 0.60109 0.34392 0.73588 0.00000
C699 C 0.61577 0.36761 0.76686 0.00000
C700 C 0.60631 0.39180 0.80978 0.00000
C701 C 0.58177 0.39090 0.82150 0.00000
C702 C 0.56580 0.36704 0.79065 0.00000
C703 C 0.57633 0.34457 0.74799 0.00000
H704 H 0.38493 0.47161 0.36027 0.00000
H705 H 0.36146 0.43871 0.39193 0.00000
I706 I 0.41238 0.33094 0.16926 0.00000
I707 I 0.38935 0.48282 0.23236 0.00000
I708 I 0.37516 0.36638 0.42025 0.00000
N709 N 0.37627 0.44485 0.35971 0.00000
C710 C 0.39302 0.35689 0.29122 0.00000
C711 C 0.39862 0.36762 0.23278 0.00000
C712 C 0.39693 0.40376 0.21497 0.00000
C713 C 0.38996 0.42883 0.25800 0.00000
C714 C 0.38391 0.41917 0.31890 0.00000
C715 C 0.38545 0.38298 0.33276 0.00000
H716 H 0.18440 0.62452 0.16246 0.00000
H717 H 0.17507 0.67402 0.15881 0.00000
I718 I 0.07410 0.60452 0.30292 0.00000
I719 I 0.15190 0.56952 0.12474 0.00000
I720 I 0.15599 0.70882 0.26490 0.00000
N721 N 0.17115 0.64600 0.17231 0.00000
C722 C 0.11729 0.65186 0.27330 0.00000
C723 C 0.10555 0.62059 0.25736 0.00000
C724 C 0.11508 0.59721 0.21326 0.00000
C725 C 0.13698 0.60585 0.18671 0.00000
C726 C 0.14980 0.63786 0.20137 0.00000
C727 C 0.13905 0.65999 0.24418 0.00000
loop_
_geom_bond_atom_site_label_1
_geom_bond_atom_site_label_2
_geom_bond_distance
_geom_bond_site_symmetry_2
_ccdc_geom_bond_type
Zn0 N2 2.064 . S
Zn0 N26 1.958 . S
Zn0 N31 2.064 . S
Zn0 N46 1.958 . S
H1 C40 1.140 . S
N2 C5 1.407 . D
N2 C43 1.615 . S
H3 C9 1.140 . S
C4 C5 1.350 . S
C4 C47 1.293 . D
C5 C40 1.481 . S
N6 C8 1.407 . D
N6 C18 1.615 . S
N6 Zn52 2.064 . S
C7 C8 1.350 . S
C7 C50 1.293 . D
C8 C9 1.481 1_655 S
C9 C13 1.203 . D
C10 C11 1.474 . S
C10 C37 1.370 . S
C10 N46 1.457 . D
C11 C12 1.296 . D
C11 C15 1.782 . S
C12 H45 1.140 . S
C12 C47 1.521 . S
C13 C18 1.259 1_455 A
C14 C15 1.474 . S
C14 N49 1.457 . D
C14 C54 1.370 . S
C15 C16 1.296 . D
C16 H48 1.140 . S
C16 C50 1.521 . S
N17 C19 1.407 . D
N17 C21 1.615 . S
N17 Zn52 2.064 . S
C18 C53 1.355 . A
C19 C20 1.350 . S
C19 C22 1.481 . S
C20 C57 1.293 . D
C21 C23 1.259 . A
C21 C53 1.355 . A
C22 C23 1.203 . D
C22 H44 1.140 . S
C24 C25 1.474 . S
C24 N51 1.457 . D
C24 C54 1.370 . S
C25 C27 1.296 . D
C25 C39 1.782 . S
N26 C28 1.415 . S
N26 C38 1.457 . D
C27 H55 1.140 . S
C27 C57 1.521 . S
C28 C32 1.293 . D
C28 C41 1.521 . S
H29 C41 1.140 . S
H30 C34 1.140 . S
N31 C33 1.407 . D
N31 C36 1.615 . S
C32 C33 1.350 . S
C33 C34 1.481 . S
C34 C35 1.203 . D
C35 C36 1.259 . A
C36 C56 1.355 . A
C37 C38 1.370 . S
C37 C54 1.771 . D
C38 C39 1.474 . S
C39 C41 1.296 . D
C40 C42 1.203 . D
C42 C43 1.259 . A
C43 C56 1.355 . A
N46 C47 1.415 . S
N49 C50 1.415 . S
N49 Zn52 1.958 . S
N51 Zn52 1.958 . S
N51 C57 1.415 . S
Zn58 N60 2.064 . S
Zn58 N84 1.958 . S
Zn58 N89 2.064 . S
Zn58 N104 1.958 . S
H59 C98 1.140 . S
N60 C63 1.407 . D
N60 C101 1.615 . S
H61 C67 1.140 . S
C62 C63 1.350 . S
C62 C105 1.293 . D
C63 C98 1.481 . S
N64 C66 1.407 . D
N64 C76 1.615 . S
N64 Zn110 2.064 . S
C65 C66 1.350 . S
C65 C108 1.293 . D
C66 C67 1.481 1_565 S
C67 C71 1.203 . D
C68 C69 1.474 . S
C68 C95 1.370 . S
C68 N104 1.457 . D
C69 C70 1.296 . D
C69 C73 1.782 . S
C70 H103 1.140 . S
C70 C105 1.521 . S
C71 C76 1.259 1_545 A
C72 C73 1.474 . S
C72 N107 1.457 . D
C72 C112 1.370 . S
C73 C74 1.296 . D
C74 H106 1.140 . S
C74 C108 1.521 . S
N75 C77 1.407 . D
N75 C79 1.615 . S
N75 Zn110 2.064 . S
C76 C111 1.355 . A
C77 C78 1.350 . S
C77 C80 1.481 1_655 S
C78 C115 1.293 . D
C79 C81 1.259 1_655 A
C79 C111 1.355 . A
C80 C81 1.203 . D
C80 H102 1.140 . S
C82 C83 1.474 . S
C82 N109 1.457 . D
C82 C112 1.370 . S
C83 C85 1.296 . D
C83 C97 1.782 . S
N84 C86 1.415 . S
N84 C96 1.457 . D
C85 H113 1.140 . S
C85 C115 1.521 . S
C86 C90 1.293 . D
C86 C99 1.521 . S
H87 C99 1.140 . S
H88 C92 1.140 . S
N89 C91 1.407 . D
N89 C94 1.615 . S
C90 C91 1.350 . S
C91 C92 1.481 . S
C92 C93 1.203 . D
C93 C94 1.259 . A
C94 C114 1.355 . A
C95 C96 1.370 . S
C95 C112 1.771 . D
C96 C97 1.474 . S
C97 C99 1.296 . D
C98 C100 1.203 . D
C100 C101 1.259 . A
C101 C114 1.355 . A
N104 C105 1.415 . S
N107 C108 1.415 . S
N107 Zn110 1.958 . S
N109 Zn110 1.958 . S
N109 C115 1.415 . S
Zn116 N118 2.064 . S
Zn116 N142 1.958 . S
Zn116 N147 2.064 . S
Zn116 N162 1.958 . S
H117 C156 1.140 . S
N118 C121 1.407 . D
N118 C159 1.615 . S
H119 C125 1.140 . S
C120 C121 1.350 . S
C120 C163 1.293 . D
C121 C156 1.481 . S
N122 C124 1.407 . D
N122 C134 1.615 . S
N122 Zn168 2.064 . S
C123 C124 1.350 . S
C123 C166 1.293 . D
C124 C125 1.481 . S
C125 C129 1.203 . D
C126 C127 1.474 . S
C126 C153 1.370 . S
C126 N162 1.457 . D
C127 C128 1.296 . D
C127 C131 1.782 . S
C128 H161 1.140 . S
C128 C163 1.521 . S
C129 C134 1.259 . A
C130 C131 1.474 . S
C130 N165 1.457 . D
C130 C170 1.370 . S
C131 C132 1.296 . D
C132 H164 1.140 . S
C132 C166 1.521 . S
N133 C135 1.407 . D
N133 C137 1.615 . S
N133 Zn168 2.064 . S
C134 C169 1.355 . A
C135 C136 1.350 . S
C135 C138 1.481 . S
C136 C173 1.293 . D
C137 C139 1.259 . A
C137 C169 1.355 . A
C138 C139 1.203 . D
C138 H160 1.140 . S
C140 C141 1.474 . S
C140 N167 1.457 . D
C140 C170 1.370 . S
C141 C143 1.296 . D
C141 C155 1.782 . S
N142 C144 1.415 . S
N142 C154 1.457 . D
C143 H171 1.140 . S
C143 C173 1.521 . S
C144 C148 1.293 . D
C144 C157 1.521 . S
H145 C157 1.140 . S
H146 C150 1.140 . S
N147 C149 1.407 . D
N147 C152 1.615 . S
C148 C149 1.350 . S
C149 C150 1.481 . S
C150 C151 1.203 . D
C151 C152 1.259 . A
C152 C172 1.355 . A
C153 C154 1.370 . S
C153 C170 1.771 . D
C154 C155 1.474 . S
C155 C157 1.296 . D
C156 C158 1.203 . D
C158 C159 1.259 . A
C159 C172 1.355 . A
N162 C163 1.415 . S
N165 C166 1.415 . S
N165 Zn168 1.958 . S
N167 Zn168 1.958 . S
N167 C173 1.415 . S
Zn174 N176 2.064 . S
Zn174 N200 1.958 . S
Zn174 N205 2.064 . S
Zn174 N220 1.958 . S
H175 C214 1.140 . S
N176 C179 1.407 . D
N176 C217 1.615 . S
H177 C183 1.140 . S
C178 C179 1.350 . S
C178 C221 1.293 . D
C179 C214 1.481 . S
N180 C182 1.407 . D
N180 C192 1.615 . S
N180 Zn226 2.064 . S
C181 C182 1.350 . S
C181 C224 1.293 . D
C182 C183 1.481 . S
C183 C187 1.203 . D
C184 C185 1.474 . S
C184 C211 1.370 . S
C184 N220 1.457 . D
C185 C186 1.296 . D
C185 C189 1.782 . S
C186 H219 1.140 . S
C186 C221 1.521 . S
C187 C192 1.259 . A
C188 C189 1.474 . S
C188 N223 1.457 . D
C188 C228 1.370 . S
C189 C190 1.296 . D
C190 H222 1.140 . S
C190 C224 1.521 . S
N191 C193 1.407 . D
N191 C195 1.615 . S
N191 Zn226 2.064 . S
C192 C227 1.355 . A
C193 C194 1.350 . S
C193 C196 1.481 . S
C194 C231 1.293 . D
C195 C197 1.259 . A
C195 C227 1.355 . A
C196 C197 1.203 . D
C196 H218 1.140 . S
C198 C199 1.474 . S
C198 N225 1.457 . D
C198 C228 1.370 . S
C199 C201 1.296 . D
C199 C213 1.782 . S
N200 C202 1.415 . S
N200 C212 1.457 . D
C201 H229 1.140 . S
C201 C231 1.521 . S
C202 C206 1.293 . D
C202 C215 1.521 . S
H203 C215 1.140 . S
H204 C208 1.140 . S
N205 C207 1.407 . D
N205 C210 1.615 . S
C206 C207 1.350 . S
C207 C208 1.481 . S
C208 C209 1.203 . D
C209 C210 1.259 . A
C210 C230 1.355 . A
C211 C212 1.370 . S
C211 C228 1.771 . D
C212 C213 1.474 . S
C213 C215 1.296 . D
C214 C216 1.203 . D
C216 C217 1.259 . A
C217 C230 1.355 . A
N220 C221 1.415 . S
N223 C224 1.415 . S
N223 Zn226 1.958 . S
N225 Zn226 1.958 . S
N225 C231 1.415 . S
Zn232 N234 2.064 . S
Zn232 N258 1.958 . S
Zn232 N263 2.064 . S
Zn232 N278 1.958 . S
H233 C272 1.173 . S
N234 C237 1.407 . D
N234 C275 1.615 . S
H235 C241 1.140 . S
C236 C237 1.350 . S
C236 C279 1.293 . D
C237 C272 1.444 1_455 S
N238 C240 1.407 . D
N238 C250 1.615 . S
N238 Zn284 2.064 . S
C239 C240 1.350 . S
C239 C282 1.293 . D
C240 C241 1.481 . S
C241 C245 1.203 . D
C242 C243 1.474 . S
C242 C269 1.370 . S
C242 N278 1.457 . D
C243 C244 1.296 . D
C243 C247 1.782 . S
C244 H277 1.140 . S
C244 C279 1.521 . S
C245 C250 1.259 . A
C246 C247 1.474 . S
C246 N281 1.457 . D
C246 C286 1.370 . S
C247 C248 1.296 . D
C248 H280 1.140 . S
C248 C282 1.521 . S
N249 C251 1.407 . D
N249 C253 1.615 . S
N249 Zn284 2.064 . S
C250 C285 1.355 . A
C251 C252 1.350 . S
C251 C254 1.481 . S
C252 C289 1.293 . D
C253 C255 1.259 . A
C253 C285 1.355 . A
C254 C255 1.203 . D
C254 H276 1.140 . S
C256 C257 1.474 . S
C256 N283 1.457 . D
C256 C286 1.370 . S
C257 C259 1.296 . D
C257 C271 1.782 . S
N258 C260 1.415 . S
N258 C270 1.457 . D
C259 H287 1.140 . S
C259 C289 1.521 . S
C260 C264 1.293 . D
C260 C273 1.521 . S
H261 C273 1.140 . S
H262 C266 1.140 . S
N263 C265 1.407 . D
N263 C268 1.615 . S
C264 C265 1.350 . S
C265 C266 1.481 . S
C266 C267 1.203 . D
C267 C268 1.259 . A
C268 C288 1.355 . A
C269 C270 1.370 . S
C269 C286 1.771 . D
C270 C271 1.474 . S
C271 C273 1.296 . D
C272 C274 1.200 1_655 D
C274 C275 1.284 . A
C275 C288 1.355 . A
N278 C279 1.415 . S
N281 C282 1.415 . S
N281 Zn284 1.958 . S
N283 Zn284 1.958 . S
N283 C289 1.415 . S
Zn290 N292 2.064 . S
Zn290 N316 1.958 . S
Zn290 N321 2.064 . S
Zn290 N336 1.958 . S
H291 C330 1.140 . S
N292 C295 1.407 . D
N292 C333 1.615 . S
H293 C299 1.140 . S
C294 C295 1.350 . S
C294 C337 1.293 . D
C295 C330 1.481 . S
N296 C298 1.407 . D
N296 C308 1.615 . S
N296 Zn342 2.064 . S
C297 C298 1.350 . S
C297 C340 1.293 . D
C298 C299 1.481 1_545 S
C299 C303 1.203 . D
C300 C301 1.474 . S
C300 C327 1.370 . S
C300 N336 1.457 . D
C301 C302 1.296 . D
C301 C305 1.782 . S
C302 H335 1.140 . S
C302 C337 1.521 . S
C303 C308 1.259 1_565 A
C304 C305 1.474 . S
C304 N339 1.457 . D
C304 C344 1.370 . S
C305 C306 1.296 . D
C306 H338 1.140 . S
C306 C340 1.521 . S
N307 C309 1.407 . D
N307 C311 1.615 . S
N307 Zn342 2.064 . S
C308 C343 1.355 . A
C309 C310 1.350 . S
C309 C312 1.481 . S
C310 C347 1.293 . D
C311 C313 1.259 . A
C311 C343 1.355 . A
C312 C313 1.203 . D
C312 H334 1.140 . S
C314 C315 1.474 . S
C314 N341 1.457 . D
C314 C344 1.370 . S
C315 C317 1.296 . D
C315 C329 1.782 . S
N316 C318 1.415 . S
N316 C328 1.457 . D
C317 H345 1.140 . S
C317 C347 1.521 . S
C318 C322 1.293 . D
C318 C331 1.521 . S
H319 C331 1.140 . S
H320 C324 1.140 . S
N321 C323 1.407 . D
N321 C326 1.615 . S
C322 C323 1.350 . S
C323 C324 1.481 . S
C324 C325 1.203 . D
C325 C326 1.259 . A
C326 C346 1.355 . A
C327 C328 1.370 . S
C327 C344 1.771 . D
C328 C329 1.474 . S
C329 C331 1.296 . D
C330 C332 1.203 . D
C332 C333 1.259 . A
C333 C346 1.355 . A
N336 C337 1.415 . S
N339 C340 1.415 . S
N339 Zn342 1.958 . S
N341 Zn342 1.958 . S
N341 C347 1.415 . S
Zn348 N350 2.064 . S
Zn348 N374 1.958 . S
Zn348 N379 2.064 . S
Zn348 N394 1.958 . S
H349 C388 1.140 . S
N350 C353 1.407 . D
N350 C391 1.615 . S
H351 C357 1.140 . S
C352 C353 1.350 . S
C352 C395 1.293 . D
C353 C388 1.481 1_545 S
N354 C356 1.407 . D
N354 C366 1.615 . S
N354 Zn400 2.064 . S
C355 C356 1.350 . S
C355 C398 1.293 . D
C356 C357 1.481 . S
C357 C361 1.203 . D
C358 C359 1.474 . S
C358 C385 1.370 . S
C358 N394 1.457 . D
C359 C360 1.296 . D
C359 C363 1.782 . S
C360 H393 1.140 . S
C360 C395 1.521 . S
C361 C366 1.259 . A
C362 C363 1.474 . S
C362 N397 1.457 . D
C362 C402 1.370 . S
C363 C364 1.296 . D
C364 H396 1.140 . S
C364 C398 1.521 . S
N365 C367 1.407 . D
N365 C369 1.615 . S
N365 Zn400 2.064 . S
C366 C401 1.355 . A
C367 C368 1.350 . S
C367 C370 1.481 . S
C368 C405 1.293 . D
C369 C371 1.259 . A
C369 C401 1.355 . A
C370 C371 1.203 . D
C370 H392 1.140 . S
C372 C373 1.474 . S
C372 N399 1.457 . D
C372 C402 1.370 . S
C373 C375 1.296 . D
C373 C387 1.782 . S
N374 C376 1.415 . S
N374 C386 1.457 . D
C375 H403 1.140 . S
C375 C405 1.521 . S
C376 C380 1.293 . D
C376 C389 1.521 . S
H377 C389 1.140 . S
H378 C382 1.140 . S
N379 C381 1.407 . D
N379 C384 1.615 . S
C380 C381 1.350 . S
C381 C382 1.481 . S
C382 C383 1.203 . D
C383 C384 1.259 . A
C384 C404 1.355 . A
C385 C386 1.370 . S
C385 C402 1.771 . D
C386 C387 1.474 . S
C387 C389 1.296 . D
C388 C390 1.205 . D
C390 C391 1.240 1_565 A
C391 C404 1.355 . A
N394 C395 1.415 . S
N397 C398 1.415 . S
N397 Zn400 1.958 . S
N399 Zn400 1.958 . S
N399 C405 1.415 . S
Zn406 N408 2.064 . S
Zn406 N432 1.958 . S
Zn406 N437 2.064 . S
Zn406 N452 1.958 . S
H407 C446 1.140 . S
N408 C411 1.407 . D
N408 C449 1.615 . S
H409 C415 1.140 . S
C410 C411 1.350 . S
C410 C453 1.293 . D
C411 C446 1.481 1_565 S
N412 C414 1.407 . D
N412 C424 1.615 . S
N412 Zn458 2.064 . S
C413 C414 1.350 . S
C413 C456 1.293 . D
C414 C415 1.481 . S
C415 C419 1.203 . D
C416 C417 1.474 . S
C416 C443 1.370 . S
C416 N452 1.457 . D
C417 C418 1.296 . D
C417 C421 1.782 . S
C418 H451 1.140 . S
C418 C453 1.521 . S
C419 C424 1.259 . A
C420 C421 1.474 . S
C420 N455 1.457 . D
C420 C460 1.370 . S
C421 C422 1.296 . D
C422 H454 1.140 . S
C422 C456 1.521 . S
N423 C425 1.407 . D
N423 C427 1.615 . S
N423 Zn458 2.064 . S
C424 C459 1.355 . A
C425 C426 1.350 . S
C425 C428 1.481 . S
C426 C463 1.293 . D
C427 C429 1.259 . A
C427 C459 1.355 . A
C428 C429 1.203 . D
C428 H450 1.140 . S
C430 C431 1.474 . S
C430 N457 1.457 . D
C430 C460 1.370 . S
C431 C433 1.296 . D
C431 C445 1.782 . S
N432 C434 1.415 . S
N432 C444 1.457 . D
C433 H461 1.140 . S
C433 C463 1.521 . S
C434 C438 1.293 . D
C434 C447 1.521 . S
H435 C447 1.140 . S
H436 C440 1.140 . S
N437 C439 1.407 . D
N437 C442 1.615 . S
C438 C439 1.350 . S
C439 C440 1.481 1_455 S
C440 C441 1.203 . D
C441 C442 1.259 1_655 A
C442 C462 1.355 . A
C443 C444 1.370 . S
C443 C460 1.771 . D
C444 C445 1.474 . S
C445 C447 1.296 . D
C446 C448 1.205 . D
C448 C449 1.239 1_545 A
C449 C462 1.355 . A
N452 C453 1.415 . S
N455 C456 1.415 . S
N455 Zn458 1.958 . S
N457 Zn458 1.958 . S
N457 C463 1.415 . S
C464 O474 1.255 . S
C464 O475 1.236 . D
Be465 O466 1.618 . S
Be465 O468 1.618 . S
Be465 O472 1.618 . S
Be465 O474 1.618 . S
O466 C470 1.255 . S
O467 C470 1.236 . D
O468 C471 1.255 . S
O469 C471 1.236 . D
O472 C476 1.255 . S
O473 C476 1.236 . D
C477 O487 1.255 . S
C477 O488 1.236 . D
Be478 O479 1.618 . S
Be478 O481 1.618 . S
Be478 O485 1.618 . S
Be478 O487 1.618 . S
O479 C483 1.255 . S
O480 C483 1.236 . D
O481 C484 1.255 . S
O482 C484 1.236 . D
O485 C489 1.255 . S
O486 C489 1.236 . D
C490 O500 1.255 . S
C490 O501 1.236 . D
Be491 O492 1.618 . S
Be491 O494 1.618 . S
Be491 O498 1.618 . S
Be491 O500 1.618 . S
O492 C496 1.255 . S
O493 C496 1.236 . D
O494 C497 1.255 . S
O495 C497 1.236 . D
O498 C502 1.255 . S
O499 C502 1.236 . D
C503 O513 1.255 . S
C503 O514 1.236 . D
Be504 O505 1.618 . S
Be504 O507 1.618 . S
Be504 O511 1.618 . S
Be504 O513 1.618 . S
O505 C509 1.255 . S
O506 C509 1.236 . D
O507 C510 1.255 . S
O508 C510 1.236 . D
O511 C515 1.255 . S
O512 C515 1.236 . D
S516 C517 1.698 . A
S516 C520 1.713 . A
C517 C518 1.337 . A
C518 C519 1.410 . A
C518 H525 0.929 . S
C519 C520 1.352 . A
C519 H526 0.929 . S
C520 C527 1.455 . S
S521 C522 1.698 . A
S521 C527 1.713 . A
C522 C523 1.337 . A
C523 C524 1.410 . A
C523 H528 0.929 . S
C524 C527 1.352 . A
C524 H529 0.930 . S
S530 C531 1.698 . A
S530 C534 1.713 . A
C531 C532 1.337 . A
C532 C533 1.410 . A
C532 H539 0.929 . S
C533 C534 1.352 . A
C533 H540 0.929 . S
C534 C541 1.455 . S
S535 C536 1.698 . A
S535 C541 1.713 . A
C536 C537 1.337 . A
C537 C538 1.410 . A
C537 H542 0.929 . S
C538 C541 1.352 . A
C538 H543 0.930 1_554 S
N544 N545 1.392 . A
N544 C547 1.290 1_545 A
N545 C548 1.235 . A
O546 C547 1.342 1_545 A
O546 C548 1.368 . A
N549 N550 1.392 1_565 A
N549 C552 1.290 . A
N550 C553 1.235 . A
O551 C552 1.342 . A
O551 C553 1.368 1_565 A
N554 N555 1.392 1_545 A
N554 C557 1.290 . A
N555 C558 1.235 . A
O556 C557 1.342 1_565 A
O556 C558 1.368 . A
N559 N560 1.392 . A
N559 C562 1.290 . A
N560 C563 1.235 1_545 A
O561 C562 1.342 . A
O561 C563 1.368 1_545 A
N564 N565 1.392 . A
N564 C567 1.290 . A
N565 C568 1.235 . A
O566 C567 1.342 . A
O566 C568 1.368 . A
N569 N570 1.392 . A
N569 C572 1.290 . A
N570 C573 1.235 . A
O571 C572 1.342 . A
O571 C573 1.368 . A
N574 N575 1.392 . A
N574 C577 1.290 . A
N575 C578 1.235 . A
O576 C577 1.342 . A
O576 C578 1.368 . A
N579 N580 1.392 . A
N579 C582 1.290 . A
N580 C583 1.235 . A
O581 C582 1.342 . A
O581 C583 1.368 . A
S584 C585 1.698 . A
S584 C588 1.705 1_554 A
C585 C586 1.337 1_554 A
C586 C587 1.410 . A
C586 H593 0.929 . S
C587 C588 1.358 . A
C587 H594 0.929 . S
C588 C595 1.456 1_455 S
S589 C590 1.698 . A
S589 C595 1.713 . A
C590 C591 1.337 1_556 A
C591 C592 1.410 . A
C591 H596 0.929 . S
C592 C595 1.352 1_554 A
C592 H597 0.930 . S
S598 C599 1.698 . A
S598 C602 1.713 . A
C599 C600 1.337 . A
C600 C601 1.410 1_556 A
C600 H607 0.929 . S
C601 C602 1.352 1_554 A
C601 H608 0.929 . S
C602 C609 1.455 1_556 S
S603 C604 1.698 . A
S603 C609 1.713 . A
C604 C605 1.337 . A
C605 C606 1.410 . A
C605 H610 0.929 . S
C606 C609 1.352 . A
C606 H611 0.930 1_554 S
N612 N613 1.392 1_455 A
N612 C615 1.290 . A
N613 C616 1.235 . A
O614 C615 1.342 . A
O614 C616 1.368 1_455 A
N617 N618 1.391 1_655 A
N617 C620 1.290 . A
N618 C621 1.236 . A
O619 C620 1.359 . A
O619 C621 1.359 1_655 A
N622 N623 1.392 . A
N622 C625 1.290 . A
N623 C626 1.235 . A
O624 C625 1.342 . A
O624 C626 1.368 . A
N627 N628 1.392 . A
N627 C630 1.290 . A
N628 C631 1.235 . A
O629 C630 1.342 . A
O629 C631 1.368 . A
H632 N637 1.110 . S
H633 N637 1.110 . S
I634 C639 2.103 . S
I635 C641 2.096 . S
I636 C643 2.103 . S
N637 C642 1.382 . S
C638 C639 1.383 . A
C638 C643 1.401 . A
C639 C640 1.410 . A
C640 C641 1.388 . A
C641 C642 1.429 . A
C642 C643 1.389 . A
H644 N649 1.110 . S
H645 N649 1.110 . S
I646 C651 2.103 . S
I647 C653 2.096 . S
I648 C655 2.103 . S
N649 C654 1.382 . S
C650 C651 1.383 . A
C650 C655 1.401 . A
C651 C652 1.410 . A
C652 C653 1.388 . A
C653 C654 1.429 . A
C654 C655 1.389 . A
H656 N661 1.110 . S
H657 N661 1.110 . S
I658 C663 2.103 . S
I659 C665 2.096 . S
I660 C667 2.103 . S
N661 C666 1.382 . S
C662 C663 1.383 . A
C662 C667 1.401 . A
C663 C664 1.410 . A
C664 C665 1.388 . A
C665 C666 1.429 . A
C666 C667 1.389 . A
H668 N673 1.110 . S
H669 N673 1.110 . S
I670 C675 2.103 . S
I671 C677 2.096 . S
I672 C679 2.103 . S
N673 C678 1.382 . S
C674 C675 1.383 . A
C674 C679 1.401 . A
C675 C676 1.410 . A
C676 C677 1.388 . A
C677 C678 1.429 . A
C678 C679 1.389 . A
H680 N685 1.110 . S
H681 N685 1.110 . S
I682 C687 2.103 . S
I683 C689 2.096 . S
I684 C691 2.103 . S
N685 C690 1.382 . S
C686 C687 1.383 . A
C686 C691 1.401 . A
C687 C688 1.410 . A
C688 C689 1.388 . A
C689 C690 1.429 . A
C690 C691 1.389 . A
H692 N697 1.110 . S
H693 N697 1.110 . S
I694 C699 2.103 . S
I695 C701 2.096 . S
I696 C703 2.103 . S
N697 C702 1.382 . S
C698 C699 1.383 . A
C698 C703 1.401 . A
C699 C700 1.410 . A
C700 C701 1.388 . A
C701 C702 1.429 . A
C702 C703 1.389 . A
H704 N709 1.110 . S
H705 N709 1.110 . S
I706 C711 2.103 . S
I707 C713 2.096 . S
I708 C715 2.103 . S
N709 C714 1.382 . S
C710 C711 1.383 . A
C710 C715 1.401 . A
C711 C712 1.410 . A
C712 C713 1.388 . A
C713 C714 1.429 . A
C714 C715 1.389 . A
H716 N721 1.110 . S
H717 N721 1.110 . S
I718 C723 2.103 . S
I719 C725 2.096 . S
I720 C727 2.103 . S
N721 C726 1.382 . S
C722 C723 1.383 . A
C722 C727 1.401 . A
C723 C724 1.410 . A
C724 C725 1.388 . A
C725 C726 1.429 . A
C726 C727 1.389 . A
C517 C476 1.965 . S
C522 C502 1.914 . S
C531 C515 1.953 . S
C536 C489 1.923 . S
C547 C65 1.418 . S
C548 C20 1.573 . S
C552 C136 1.507 . S
C553 C352 1.600 . S
C557 C297 1.520 . S
C558 C194 1.470 . S
C562 C264 1.396 . S
C563 C410 1.422 . S
C567 C294 1.388 . S
C568 C32 1.401 . S
C572 C206 1.139 . S
C573 C62 1.223 . S
C577 C148 1.138 . S
C578 C413 1.228 . S
C582 C252 1.441 . S
C583 C355 1.165 . S
C585 C509 1.607 . S
C590 C470 1.583 . S
C599 C496 1.609 . S
C604 C483 1.557 . S
C615 C236 1.030 . S
C616 C7 1.140 . S
C620 C78 1.448 . S
C621 C438 1.772 . S
C625 C123 1.490 . S
C626 C181 1.444 . S
C630 C310 1.461 . S
C631 C380 1.680 . S
C640 C464 1.554 . S
C638 C4 1.524 . S
C650 C90 1.180 . S
C652 C471 1.026 . S
C664 C477 1.375 . S
C662 C120 1.821 . S
C676 C490 1.409 . S
C674 C178 1.567 . S
C686 C239 1.466 . S
C688 C503 1.467 . S
C700 C497 1.121 . S
C698 C322 1.356 . S
C710 C368 1.372 . S
C712 C484 1.473 . S
C724 C510 1.274 . S
C722 C426 0.905 . S
