# Generated by pormake.
# Topology cnw, (4,4,4,4)-cn, num edge types: 6
# Building blocks:
#     Node 0, Type 0, BuildingBlock: N654, # of connection points: 4
#     Node 1, Type 0, BuildingBlock: N654, # of connection points: 4
#     Node 2, Type 0, BuildingBlock: N654, # of connection points: 4
#     Node 3, Type 0, BuildingBlock: N654, # of connection points: 4
#     Node 4, Type 1, BuildingBlock: N109, # of connection points: 4
#     Node 5, Type 1, BuildingBlock: N109, # of connection points: 4
#     Node 6, Type 1, BuildingBlock: N109, # of connection points: 4
#     Node 7, Type 1, BuildingBlock: N109, # of connection points: 4
#     Node 8, Type 2, BuildingBlock: N355, # of connection points: 4
#     Node 9, Type 2, BuildingBlock: N355, # of connection points: 4
#     Node 10, Type 2, BuildingBlock: N355, # of connection points: 4
#     Node 11, Type 2, BuildingBlock: N355, # of connection points: 4
#     Node 12, Type 3, BuildingBlock: N466, # of connection points: 4
#     Node 13, Type 3, BuildingBlock: N466, # of connection points: 4
#     Node 14, Type 3, BuildingBlock: N466, # of connection points: 4
#     Node 15, Type 3, BuildingBlock: N466, # of connection points: 4
#     Edge 16, Type (0, 1), BuildingBlock: E29, # of connection points: 2
#     Edge 17, Type (0, 1), BuildingBlock: E29, # of connection points: 2
#     Edge 18, Type (0, 1), BuildingBlock: E29, # of connection points: 2
#     Edge 19, Type (0, 1), BuildingBlock: E29, # of connection points: 2
#     Edge 20, Type (1, 2), BuildingBlock: E212, # of connection points: 2
#     Edge 21, Type (1, 2), BuildingBlock: E212, # of connection points: 2
#     Edge 22, Type (1, 2), BuildingBlock: E212, # of connection points: 2
#     Edge 23, Type (1, 2), BuildingBlock: E212, # of connection points: 2
#     Edge 24, Type (1, 2), BuildingBlock: E212, # of connection points: 2
#     Edge 25, Type (1, 2), BuildingBlock: E212, # of connection points: 2
#     Edge 26, Type (1, 2), BuildingBlock: E212, # of connection points: 2
#     Edge 27, Type (1, 2), BuildingBlock: E212, # of connection points: 2
#     Edge 28, Type (3, 3), BuildingBlock: E110, # of connection points: 2
#     Edge 29, Type (3, 3), BuildingBlock: E110, # of connection points: 2
#     Edge 30, Type (3, 3), BuildingBlock: E110, # of connection points: 2
#     Edge 31, Type (3, 3), BuildingBlock: E110, # of connection points: 2
#     Edge 32, Type (0, 3), BuildingBlock: E136, # of connection points: 2
#     Edge 33, Type (0, 3), BuildingBlock: E136, # of connection points: 2
#     Edge 34, Type (0, 3), BuildingBlock: E136, # of connection points: 2
#     Edge 35, Type (0, 3), BuildingBlock: E136, # of connection points: 2
#     Edge 36, Type (2, 3), BuildingBlock: E48, # of connection points: 2
#     Edge 37, Type (2, 3), BuildingBlock: E48, # of connection points: 2
#     Edge 38, Type (2, 3), BuildingBlock: E48, # of connection points: 2
#     Edge 39, Type (2, 3), BuildingBlock: E48, # of connection points: 2
#     Edge 40, Type (1, 2), BuildingBlock: E212, # of connection points: 2
#     Edge 41, Type (1, 2), BuildingBlock: E212, # of connection points: 2
#     Edge 42, Type (1, 2), BuildingBlock: E212, # of connection points: 2
#     Edge 43, Type (1, 2), BuildingBlock: E212, # of connection points: 2
#     Edge 44, Type (0, 0), BuildingBlock: E80, # of connection points: 2
#     Edge 45, Type (0, 0), BuildingBlock: E80, # of connection points: 2
#     Edge 46, Type (0, 0), BuildingBlock: E80, # of connection points: 2
#     Edge 47, Type (0, 0), BuildingBlock: E80, # of connection points: 2
# Relax obj value: 0.785
# Max RMSD: 0.575
# Mean RMSD: 0.364
data_cnw+N654+N109+N355+N466+E80+E29+E136+E212+E48+E110
_symmetry_space_group_name_H-M    P1
_symmetry_Int_Tables_number       1
_symmetry_cell_setting            triclinic
loop_
_symmetry_equiv_pos_as_xyz
'x, y, z'
_cell_length_a     67.692
_cell_length_b     22.836
_cell_length_c     36.094
_cell_angle_alpha  90.286
_cell_angle_beta   89.887
_cell_angle_gamma  101.999
loop_
_atom_site_label
_atom_site_type_symbol
_atom_site_fract_x
_atom_site_fract_y
_atom_site_fract_z
_atom_type_partial_charge
Cu0 Cu 0.96905 0.82926 0.66694 0.00000
C1 C 0.94997 0.87303 0.60060 0.00000
C2 C 0.95003 0.90825 0.56919 0.00000
C3 C 0.96793 0.94344 0.55833 0.00000
H4 H 0.00010 0.81007 0.72564 0.00000
H5 H 0.94081 0.69489 0.76147 0.00000
H6 H 0.92725 0.85184 0.69166 0.00000
H7 H 0.94034 0.99527 0.75912 0.00000
H8 H 0.97397 0.00010 0.74318 0.00000
C9 C 0.98476 0.94051 0.57974 0.00000
C10 C 0.00144 0.77618 0.63050 0.00000
C11 C 0.00835 0.73650 0.60659 0.00000
C12 C 0.99408 0.69139 0.59106 0.00000
C13 C 0.97397 0.68908 0.60036 0.00000
N14 N 0.97168 0.78554 0.71397 0.00000
N15 N 0.95396 0.75106 0.72441 0.00000
H16 H 0.93776 0.84844 0.60825 0.00000
N17 N 0.95619 0.88658 0.69690 0.00000
N18 N 0.97011 0.92998 0.71196 0.00000
H19 H 0.01086 0.80667 0.64223 0.00000
H20 H 0.93808 0.90776 0.55590 0.00000
H21 H 0.96414 0.65752 0.59071 0.00000
H22 H 0.99730 0.96362 0.57242 0.00000
H23 H 0.99776 0.66324 0.57477 0.00000
N24 N 0.96643 0.87297 0.61992 0.00000
N25 N 0.98415 0.90745 0.60948 0.00000
N26 N 0.98192 0.77193 0.63699 0.00000
N27 N 0.96800 0.72853 0.62193 0.00000
C28 C 0.98814 0.78548 0.73329 0.00000
C29 C 0.98808 0.75026 0.76470 0.00000
C30 C 0.97017 0.71507 0.77556 0.00000
C31 C 0.95334 0.71800 0.75415 0.00000
C32 C 0.93667 0.88233 0.70339 0.00000
C33 C 0.92976 0.92201 0.72730 0.00000
C34 C 0.94403 0.96712 0.74283 0.00000
C35 C 0.96413 0.96943 0.73353 0.00000
H36 H 0.00010 0.75075 0.77799 0.00000
Cu37 Cu 0.44460 0.65335 0.81552 0.00000
C38 C 0.46540 0.62504 0.74638 0.00000
C39 C 0.46614 0.59761 0.71200 0.00000
C40 C 0.44851 0.56597 0.69739 0.00000
H41 H 0.41178 0.65955 0.87440 0.00000
H42 H 0.47043 0.76300 0.92252 0.00000
H43 H 0.48554 0.62358 0.83906 0.00000
H44 H 0.47024 0.46589 0.89174 0.00000
H45 H 0.43714 0.46523 0.87444 0.00000
C46 C 0.43113 0.56440 0.71832 0.00000
C47 C 0.41346 0.71578 0.78356 0.00000
C48 C 0.40734 0.76104 0.76348 0.00000
C49 C 0.42212 0.80891 0.75284 0.00000
C50 C 0.44191 0.80825 0.76285 0.00000
N51 N 0.44077 0.68559 0.86605 0.00000
N52 N 0.45822 0.71663 0.88018 0.00000
H53 H 0.47742 0.64715 0.75664 0.00000
N54 N 0.45645 0.58895 0.84007 0.00000
N55 N 0.44204 0.54288 0.85042 0.00000
H56 H 0.40366 0.68312 0.79198 0.00000
H57 H 0.47844 0.60081 0.69928 0.00000
H58 H 0.45206 0.84146 0.75660 0.00000
H59 H 0.41878 0.54369 0.70852 0.00000
H60 H 0.41897 0.84080 0.73930 0.00000
N61 N 0.44844 0.62111 0.76499 0.00000
N62 N 0.43098 0.59007 0.75086 0.00000
N63 N 0.43276 0.71774 0.79096 0.00000
N64 N 0.44717 0.76382 0.78062 0.00000
C65 C 0.42381 0.68166 0.88466 0.00000
C66 C 0.42306 0.70909 0.91903 0.00000
C67 C 0.44070 0.74072 0.93364 0.00000
C68 C 0.45808 0.74229 0.91271 0.00000
C69 C 0.47574 0.59091 0.84748 0.00000
C70 C 0.48186 0.54566 0.86756 0.00000
C71 C 0.46709 0.49779 0.87820 0.00000
C72 C 0.44730 0.49845 0.86819 0.00000
H73 H 0.41077 0.70588 0.93176 0.00000
Cu74 Cu 0.53882 0.21280 0.16935 0.00000
C75 C 0.55794 0.17333 0.10127 0.00000
C76 C 0.55791 0.14012 0.06880 0.00000
C77 C 0.54002 0.10554 0.05725 0.00000
H78 H 0.50749 0.22811 0.22928 0.00000
H79 H 0.56698 0.34128 0.26734 0.00000
H80 H 0.58065 0.18897 0.19240 0.00000
H81 H 0.56763 0.04145 0.25561 0.00000
H82 H 0.53400 0.03652 0.24026 0.00000
C83 C 0.52318 0.10703 0.07911 0.00000
C84 C 0.50639 0.26787 0.13531 0.00000
C85 C 0.49945 0.30894 0.11282 0.00000
C86 C 0.51370 0.35505 0.09840 0.00000
C87 C 0.53381 0.35689 0.10731 0.00000
N88 N 0.53616 0.25351 0.21774 0.00000
N89 N 0.55386 0.28741 0.22886 0.00000
H90 H 0.57014 0.19749 0.10942 0.00000
N91 N 0.55172 0.15377 0.19719 0.00000
N92 N 0.53782 0.10940 0.21119 0.00000
H93 H 0.49698 0.23663 0.14630 0.00000
H94 H 0.56987 0.14150 0.05527 0.00000
H95 H 0.54363 0.38908 0.09843 0.00000
H96 H 0.51065 0.08432 0.07135 0.00000
H97 H 0.51000 0.38414 0.08308 0.00000
N98 N 0.54147 0.17209 0.12095 0.00000
N99 N 0.52377 0.13819 0.10983 0.00000
N100 N 0.52591 0.27183 0.14150 0.00000
N101 N 0.53981 0.31620 0.12750 0.00000
C102 C 0.51969 0.25227 0.23742 0.00000
C103 C 0.51973 0.28548 0.26989 0.00000
C104 C 0.53761 0.32006 0.28144 0.00000
C105 C 0.55446 0.31857 0.25959 0.00000
C106 C 0.57124 0.15773 0.20338 0.00000
C107 C 0.57818 0.11666 0.22587 0.00000
C108 C 0.56393 0.07055 0.24030 0.00000
C109 C 0.54382 0.06871 0.23139 0.00000
H110 H 0.50777 0.28410 0.28342 0.00000
Cu111 Cu 0.06106 0.37801 0.32151 0.00000
C112 C 0.03773 0.39908 0.25417 0.00000
C113 C 0.03567 0.42318 0.21937 0.00000
C114 C 0.05267 0.45392 0.20222 0.00000
H115 H 0.09597 0.37840 0.37684 0.00000
H116 H 0.03943 0.27789 0.43337 0.00000
H117 H 0.02077 0.40852 0.34871 0.00000
H118 H 0.03716 0.57103 0.39613 0.00000
H119 H 0.06968 0.57115 0.37532 0.00000
C120 C 0.07078 0.45800 0.22119 0.00000
C121 C 0.09141 0.31385 0.28767 0.00000
C122 C 0.09706 0.26710 0.26800 0.00000
C123 C 0.08213 0.21793 0.26002 0.00000
C124 C 0.06267 0.21887 0.27211 0.00000
N125 N 0.06680 0.35073 0.37219 0.00000
N126 N 0.04996 0.32055 0.38883 0.00000
H127 H 0.02616 0.37762 0.26618 0.00000
N128 N 0.04975 0.44406 0.34584 0.00000
N129 N 0.06432 0.49140 0.35361 0.00000
H130 H 0.10136 0.34750 0.29431 0.00000
H131 H 0.02295 0.41840 0.20807 0.00000
H132 H 0.05244 0.18487 0.26769 0.00000
H133 H 0.08270 0.47813 0.20964 0.00000
H134 H 0.08496 0.18500 0.24688 0.00000
N135 N 0.05533 0.40529 0.27082 0.00000
N136 N 0.07216 0.43547 0.25419 0.00000
N137 N 0.07237 0.31196 0.29717 0.00000
N138 N 0.05781 0.26462 0.28940 0.00000
C139 C 0.08439 0.35694 0.38884 0.00000
C140 C 0.08645 0.33284 0.42364 0.00000
C141 C 0.06946 0.30210 0.44079 0.00000
C142 C 0.05135 0.29802 0.42182 0.00000
C143 C 0.03071 0.44217 0.35534 0.00000
C144 C 0.02507 0.48892 0.37502 0.00000
C145 C 0.04000 0.53809 0.38299 0.00000
C146 C 0.05946 0.53715 0.37091 0.00000
H147 H 0.09918 0.33762 0.43495 0.00000
O148 O 0.80738 0.79159 0.74591 0.00000
O149 O 0.81202 0.78464 0.80177 0.00000
O150 O 0.78560 0.87668 0.78038 0.00000
O151 O 0.77712 0.82715 0.82779 0.00000
C152 C 0.75429 0.76111 0.73897 0.00000
O153 O 0.77879 0.70869 0.80839 0.00000
O154 O 0.78763 0.65851 0.75863 0.00000
C155 C 0.82053 0.79096 0.77062 0.00000
In156 In 0.78389 0.78824 0.78114 0.00000
C157 C 0.78035 0.87812 0.81362 0.00000
C158 C 0.78183 0.65659 0.79073 0.00000
O159 O 0.77199 0.78676 0.72982 0.00000
O160 O 0.75408 0.74744 0.77277 0.00000
O161 O 0.30248 0.74446 0.73740 0.00000
O162 O 0.30823 0.75351 0.68162 0.00000
O163 O 0.27454 0.64286 0.70298 0.00000
O164 O 0.26981 0.68718 0.65498 0.00000
C165 C 0.25029 0.74165 0.74268 0.00000
O166 O 0.27967 0.80969 0.67355 0.00000
O167 O 0.29177 0.86757 0.72316 0.00000
C168 C 0.31620 0.75308 0.71305 0.00000
In169 In 0.27904 0.73215 0.70152 0.00000
C170 C 0.26939 0.63741 0.66962 0.00000
C171 C 0.28629 0.86522 0.69090 0.00000
O172 O 0.26649 0.72696 0.75250 0.00000
O173 O 0.25135 0.75487 0.70878 0.00000
O174 O 0.69348 0.21737 0.24531 0.00000
O175 O 0.68880 0.22478 0.30120 0.00000
O176 O 0.71425 0.13005 0.27935 0.00000
O177 O 0.72301 0.17920 0.32705 0.00000
C178 C 0.74654 0.24364 0.23861 0.00000
O179 O 0.72251 0.29842 0.30828 0.00000
O180 O 0.71432 0.34955 0.25878 0.00000
C181 C 0.68035 0.21910 0.27000 0.00000
In182 In 0.71676 0.21883 0.28059 0.00000
C183 C 0.71936 0.12821 0.31259 0.00000
C184 C 0.72002 0.35103 0.29090 0.00000
O185 O 0.72874 0.21930 0.22930 0.00000
O186 O 0.74680 0.25740 0.27249 0.00000
O187 O 0.19877 0.25627 0.23645 0.00000
O188 O 0.19273 0.24652 0.18078 0.00000
O189 O 0.22735 0.35540 0.20146 0.00000
O190 O 0.23142 0.30947 0.15342 0.00000
C191 C 0.25069 0.25484 0.24082 0.00000
O192 O 0.22054 0.18749 0.17225 0.00000
O193 O 0.20818 0.13130 0.22212 0.00000
C194 C 0.18496 0.24825 0.21233 0.00000
In195 In 0.22203 0.26596 0.20015 0.00000
C196 C 0.23237 0.35977 0.16800 0.00000
C197 C 0.21351 0.13256 0.18977 0.00000
O198 O 0.23477 0.27116 0.25090 0.00000
O199 O 0.24936 0.24095 0.20695 0.00000
C200 C 0.71362 0.64133 0.43373 0.00000
C201 C 0.74092 0.76646 0.48685 0.00000
Fe202 Fe 0.72697 0.76760 0.40858 0.00000
Fe203 Fe 0.69684 0.73819 0.46988 0.00000
O204 O 0.70205 0.65525 0.45716 0.00000
O205 O 0.74551 0.77480 0.45385 0.00000
O206 O 0.69969 0.82901 0.46622 0.00000
O207 O 0.70038 0.75254 0.37969 0.00000
O208 O 0.72177 0.85055 0.42130 0.00000
O209 O 0.67831 0.73100 0.42461 0.00000
C210 C 0.71020 0.86446 0.44473 0.00000
C211 C 0.68290 0.73934 0.39161 0.00000
O212 O 0.72412 0.67679 0.41224 0.00000
O213 O 0.72344 0.75326 0.49877 0.00000
C214 C 0.21196 0.63024 0.03117 0.00000
C215 C 0.24992 0.76423 0.01573 0.00000
Fe216 Fe 0.20579 0.74604 0.00010 0.00000
Fe217 Fe 0.22042 0.74045 0.07810 0.00000
O218 O 0.21739 0.65316 0.06155 0.00000
O219 O 0.23640 0.76221 0.99252 0.00000
O220 O 0.21955 0.82925 0.07387 0.00000
O221 O 0.17909 0.72838 0.02902 0.00000
O222 O 0.20882 0.83335 0.01693 0.00000
O223 O 0.18981 0.72429 0.08596 0.00000
C224 C 0.21425 0.85627 0.04731 0.00000
C225 C 0.17628 0.72227 0.06275 0.00000
O226 O 0.20666 0.65725 0.00461 0.00000
O227 O 0.24712 0.75812 0.04945 0.00000
C228 C 0.78024 0.13212 0.93747 0.00000
C229 C 0.82117 0.25933 0.92381 0.00000
Fe230 Fe 0.77763 0.25097 0.90628 0.00000
Fe231 Fe 0.79069 0.24168 0.98471 0.00000
O232 O 0.78571 0.15400 0.96809 0.00000
O233 O 0.80819 0.26044 0.89993 0.00000
O234 O 0.79219 0.33186 0.98036 0.00000
O235 O 0.75056 0.23901 0.93361 0.00000
O236 O 0.78262 0.33866 0.92291 0.00000
O237 O 0.76013 0.23221 0.99106 0.00000
C238 C 0.78808 0.36053 0.95353 0.00000
C239 C 0.74716 0.23332 0.96719 0.00000
O240 O 0.77613 0.16080 0.91063 0.00000
O241 O 0.81776 0.25364 0.95739 0.00000
C242 C 0.29074 0.36376 0.53677 0.00000
C243 C 0.25293 0.23135 0.51604 0.00000
Fe244 Fe 0.29752 0.24779 0.50648 0.00000
Fe245 Fe 0.27989 0.25288 0.58213 0.00000
O246 O 0.28402 0.34055 0.56630 0.00000
O247 O 0.26732 0.23311 0.49464 0.00000
O248 O 0.28048 0.16384 0.57773 0.00000
O249 O 0.32301 0.26382 0.53855 0.00000
O250 O 0.29339 0.16011 0.52231 0.00000
O251 O 0.31009 0.26755 0.59397 0.00000
C252 C 0.28667 0.13690 0.55184 0.00000
C253 C 0.32448 0.26931 0.57257 0.00000
O254 O 0.29693 0.33682 0.51088 0.00000
O255 O 0.25440 0.23684 0.55006 0.00000
O256 O 0.59106 0.73543 0.44428 0.00000
O257 O 0.57640 0.80481 0.41725 0.00000
O258 O 0.52908 0.73615 0.49123 0.00000
O259 O 0.50241 0.75795 0.52089 0.00000
O260 O 0.50309 0.84484 0.39828 0.00000
O261 O 0.53703 0.85429 0.39716 0.00000
O262 O 0.52197 0.66783 0.41428 0.00000
O263 O 0.53320 0.58289 0.40718 0.00000
H264 H 0.55933 0.83655 0.45413 0.00000
H265 H 0.56479 0.77688 0.46637 0.00000
H266 H 0.51130 0.74826 0.44965 0.00000
H267 H 0.52420 0.80771 0.46486 0.00000
H268 H 0.54393 0.78094 0.37513 0.00000
H269 H 0.52155 0.77146 0.38759 0.00000
H270 H 0.54622 0.68218 0.44642 0.00000
H271 H 0.55125 0.69609 0.40500 0.00000
C272 C 0.59032 0.77164 0.42079 0.00000
C273 C 0.56087 0.79802 0.44612 0.00000
C274 C 0.52416 0.76726 0.45910 0.00000
C275 C 0.51702 0.73469 0.52150 0.00000
C276 C 0.51990 0.87432 0.39831 0.00000
C277 C 0.53503 0.78937 0.39390 0.00000
C278 C 0.54201 0.69859 0.42433 0.00000
C279 C 0.51921 0.60870 0.40566 0.00000
C280 C 0.54049 0.76322 0.43089 0.00000
O281 O 0.09786 0.73062 0.99626 0.00000
O282 O 0.07793 0.64727 0.01999 0.00000
O283 O 0.03576 0.68908 0.94400 0.00000
O284 O 0.00798 0.64997 0.91147 0.00000
O285 O 0.00010 0.55253 0.03141 0.00000
O286 O 0.03418 0.56707 0.03521 0.00000
O287 O 0.03068 0.74797 0.02213 0.00000
O288 O 0.04716 0.84219 0.03262 0.00000
H289 H 0.05952 0.60542 0.98079 0.00000
H290 H 0.06907 0.67117 0.97075 0.00000
H291 H 0.01578 0.66087 0.98361 0.00000
H292 H 0.02571 0.61054 0.96786 0.00000
H293 H 0.04514 0.64524 0.05988 0.00000
H294 H 0.02321 0.63986 0.04577 0.00000
H295 H 0.05540 0.75307 0.99176 0.00000
H296 H 0.05860 0.73936 0.03312 0.00000
C297 C 0.09426 0.69135 0.01861 0.00000
C298 C 0.06324 0.64526 0.99002 0.00000
C299 C 0.02800 0.65138 0.97476 0.00000
C300 C 0.02434 0.68421 0.91279 0.00000
C301 C 0.01550 0.53445 0.03200 0.00000
C302 C 0.03603 0.63168 0.04014 0.00000
C303 C 0.04952 0.73165 0.01297 0.00000
C304 C 0.03126 0.80572 0.03219 0.00000
C305 C 0.04418 0.66508 0.00444 0.00000
O306 O 0.88665 0.22100 0.01155 0.00000
O307 O 0.90046 0.14890 0.98505 0.00000
O308 O 0.94934 0.22129 0.05500 0.00000
O309 O 0.97640 0.20058 0.08354 0.00000
O310 O 0.97300 0.10446 0.96277 0.00000
O311 O 0.93911 0.09625 0.96372 0.00000
O312 O 0.95522 0.28374 0.97645 0.00000
O313 O 0.94424 0.36876 0.96838 0.00000
H314 H 0.91806 0.11916 0.02154 0.00000
H315 H 0.91309 0.18007 0.03294 0.00000
H316 H 0.96621 0.20535 0.01271 0.00000
H317 H 0.95339 0.14744 0.02975 0.00000
H318 H 0.93211 0.16838 0.94072 0.00000
H319 H 0.95469 0.17792 0.95174 0.00000
H320 H 0.93161 0.27271 0.01017 0.00000
H321 H 0.92574 0.25590 0.96936 0.00000
C322 C 0.88679 0.18295 0.98873 0.00000
C323 C 0.91652 0.15723 0.01289 0.00000
C324 C 0.95349 0.18754 0.02322 0.00000
C325 C 0.96194 0.22452 0.08452 0.00000
C326 C 0.95612 0.07559 0.96430 0.00000
C327 C 0.94131 0.16098 0.95913 0.00000
C328 C 0.93531 0.25447 0.98819 0.00000
C329 C 0.95805 0.34222 0.96656 0.00000
C330 C 0.93668 0.19015 0.99589 0.00000
O331 O 0.50923 0.42045 0.58535 0.00000
O332 O 0.47517 0.40580 0.58878 0.00000
O333 O 0.47871 0.22569 0.57092 0.00000
O334 O 0.46216 0.13099 0.57892 0.00000
O335 O 0.41170 0.24456 0.54557 0.00000
O336 O 0.43150 0.32655 0.57147 0.00000
O337 O 0.47409 0.28876 0.49441 0.00000
O338 O 0.50206 0.32953 0.46292 0.00000
H339 H 0.46406 0.32636 0.61137 0.00000
H340 H 0.48607 0.33245 0.59741 0.00000
H341 H 0.45417 0.22227 0.54045 0.00000
H342 H 0.45074 0.23376 0.58216 0.00000
H343 H 0.45014 0.37044 0.53340 0.00000
H344 H 0.44064 0.30529 0.52164 0.00000
H345 H 0.49384 0.31478 0.53473 0.00000
H346 H 0.48402 0.36594 0.52032 0.00000
C347 C 0.49387 0.43852 0.58642 0.00000
C348 C 0.47328 0.34096 0.59200 0.00000
C349 C 0.45993 0.24253 0.56221 0.00000
C350 C 0.47806 0.16743 0.57945 0.00000
C351 C 0.41518 0.28260 0.56894 0.00000
C352 C 0.44636 0.33014 0.54158 0.00000
C353 C 0.48168 0.32476 0.52614 0.00000
C354 C 0.48570 0.29527 0.46335 0.00000
C355 C 0.46533 0.30952 0.55545 0.00000
C356 C 0.87103 0.78917 0.77949 0.00000
C357 C 0.89290 0.81863 0.76908 0.00000
C358 C 0.89730 0.87844 0.74803 0.00000
C359 C 0.87983 0.90879 0.73740 0.00000
C360 C 0.85796 0.87933 0.74781 0.00000
C361 C 0.85356 0.81953 0.76886 0.00000
C362 C 0.84049 0.90968 0.73718 0.00000
N363 N 0.84489 0.96949 0.71613 0.00000
N364 N 0.86676 0.99895 0.70571 0.00000
C365 C 0.88423 0.96860 0.71635 0.00000
H366 H 0.86778 0.74490 0.79508 0.00000
H367 H 0.90584 0.79616 0.77695 0.00000
H368 H 0.82430 0.88788 0.74489 0.00000
H369 H 0.90042 0.99040 0.70864 0.00000
C370 C 0.35732 0.74523 0.68679 0.00000
C371 C 0.37847 0.74190 0.70111 0.00000
C372 C 0.38356 0.75240 0.74249 0.00000
C373 C 0.36750 0.76622 0.76956 0.00000
C374 C 0.34634 0.76955 0.75524 0.00000
C375 C 0.34125 0.75905 0.71385 0.00000
C376 C 0.33028 0.78337 0.78230 0.00000
N377 N 0.33537 0.79387 0.82369 0.00000
N378 N 0.35652 0.79054 0.83801 0.00000
C379 C 0.37258 0.77672 0.81094 0.00000
H380 H 0.35355 0.73745 0.65615 0.00000
H381 H 0.39036 0.73166 0.68107 0.00000
H382 H 0.31462 0.78584 0.77170 0.00000
H383 H 0.38824 0.77425 0.82155 0.00000
C384 C 0.64623 0.15090 0.23937 0.00000
C385 C 0.62419 0.12602 0.22780 0.00000
C386 C 0.60696 0.15066 0.24594 0.00000
C387 C 0.61178 0.20018 0.27566 0.00000
C388 C 0.63382 0.22506 0.28723 0.00000
C389 C 0.65105 0.20042 0.26909 0.00000
C390 C 0.63864 0.27458 0.31695 0.00000
N391 N 0.62141 0.29922 0.33509 0.00000
N392 N 0.59936 0.27433 0.32352 0.00000
C393 C 0.59455 0.22482 0.29380 0.00000
H394 H 0.65898 0.13266 0.22594 0.00000
H395 H 0.62062 0.08936 0.20580 0.00000
H396 H 0.65495 0.29300 0.32552 0.00000
H397 H 0.57823 0.20640 0.28524 0.00000
C398 C 0.15853 0.26443 0.25531 0.00000
C399 C 0.13836 0.27534 0.27068 0.00000
C400 C 0.11995 0.26989 0.24490 0.00000
C401 C 0.12172 0.25353 0.20376 0.00000
C402 C 0.14190 0.24261 0.18840 0.00000
C403 C 0.16030 0.24806 0.21417 0.00000
C404 C 0.14367 0.22624 0.14725 0.00000
N405 N 0.12527 0.22079 0.12148 0.00000
N406 N 0.10509 0.23171 0.13685 0.00000
C407 C 0.10332 0.24808 0.17799 0.00000
H408 H 0.17215 0.26846 0.27439 0.00000
H409 H 0.13704 0.28746 0.30114 0.00000
H410 H 0.15860 0.21816 0.13588 0.00000
H411 H 0.08839 0.25616 0.18936 0.00000
H412 H 0.77608 0.50715 0.83887 0.00000
H413 H 0.76728 0.49234 0.90213 0.00000
H414 H 0.81150 0.56844 0.85143 0.00000
H415 H 0.79206 0.50305 0.94134 0.00000
C416 C 0.78474 0.52870 0.85839 0.00000
C417 C 0.78114 0.49320 0.89409 0.00000
O418 O 0.80536 0.53394 0.84803 0.00000
O419 O 0.79426 0.52210 0.92202 0.00000
H420 H 0.78500 0.95141 0.87708 0.00000
H421 H 0.76294 0.01411 0.89559 0.00000
H422 H 0.80548 0.02717 0.83258 0.00000
H423 H 0.77350 0.10949 0.88692 0.00000
C424 C 0.78500 0.98913 0.86424 0.00000
C425 C 0.77712 0.03143 0.89028 0.00000
O426 O 0.80520 0.01625 0.85420 0.00000
O427 O 0.77801 0.08713 0.87285 0.00000
H428 H 0.29844 0.95875 0.61833 0.00000
H429 H 0.29367 0.05849 0.62037 0.00000
H430 H 0.26150 0.91224 0.60470 0.00000
H431 H 0.26699 0.07578 0.59286 0.00000
C432 C 0.28485 0.96735 0.61813 0.00000
C433 C 0.28589 0.02978 0.60294 0.00000
O434 O 0.27225 0.92562 0.59429 0.00000
O435 O 0.26628 0.04173 0.60067 0.00000
H436 H 0.72849 0.44875 0.37413 0.00000
H437 H 0.70033 0.48749 0.39363 0.00000
H438 H 0.73793 0.52228 0.32077 0.00000
H439 H 0.69974 0.57817 0.37666 0.00000
C440 C 0.72348 0.47824 0.35914 0.00000
C441 C 0.71236 0.51448 0.38398 0.00000
O442 O 0.74019 0.51816 0.34280 0.00000
O443 O 0.70594 0.55925 0.36315 0.00000
H444 H 0.21282 0.99480 0.14627 0.00000
H445 H 0.23153 0.98628 0.09175 0.00000
H446 H 0.18632 0.04138 0.11405 0.00000
H447 H 0.21576 0.98725 0.03952 0.00000
C448 C 0.20990 0.01354 0.12311 0.00000
C449 C 0.21681 0.98040 0.09060 0.00000
O450 O 0.18864 0.00890 0.12001 0.00000
O451 O 0.21177 0.00491 0.05694 0.00000
H452 H 0.70839 0.04528 0.37121 0.00000
H453 H 0.73188 0.99566 0.39920 0.00000
H454 H 0.69905 0.96913 0.31879 0.00000
H455 H 0.72885 0.90137 0.38601 0.00000
C456 C 0.71259 0.01160 0.35878 0.00000
C457 C 0.71968 0.97238 0.38760 0.00000
O458 O 0.69570 0.97650 0.33986 0.00000
O459 O 0.72481 0.92195 0.37033 0.00000
H460 H 0.27295 0.55282 0.60314 0.00000
H461 H 0.26269 0.44757 0.59757 0.00000
H462 H 0.30347 0.54984 0.64399 0.00000
H463 H 0.28550 0.39563 0.60844 0.00000
C464 C 0.27921 0.52609 0.61822 0.00000
C465 C 0.27707 0.46618 0.59856 0.00000
O466 O 0.30021 0.55137 0.62222 0.00000
O467 O 0.28693 0.42814 0.61900 0.00000
H468 H 0.21284 0.45182 0.12254 0.00000
H469 H 0.22825 0.49114 0.06653 0.00000
H470 H 0.23401 0.53201 0.16382 0.00000
H471 H 0.24358 0.58460 0.06731 0.00000
C472 C 0.22492 0.48407 0.12272 0.00000
C473 C 0.22613 0.51824 0.08654 0.00000
O474 O 0.22337 0.52455 0.15226 0.00000
O475 O 0.24289 0.56680 0.08711 0.00000
C476 C 0.50981 0.54880 0.41511 0.00000
O477 O 0.50892 0.50147 0.39475 0.00000
C478 C 0.50759 0.54071 0.45641 0.00000
C479 C 0.50732 0.58867 0.48003 0.00000
C480 C 0.50376 0.57907 0.51766 0.00000
C481 C 0.50050 0.52132 0.53166 0.00000
C482 C 0.50075 0.47324 0.50807 0.00000
C483 C 0.50430 0.48284 0.47045 0.00000
C484 C 0.50146 0.51732 0.57352 0.00000
O485 O 0.50906 0.56071 0.59522 0.00000
H486 H 0.51127 0.63451 0.41727 0.00000
N487 N 0.50996 0.60547 0.40159 0.00000
N488 N 0.49445 0.46450 0.58727 0.00000
H489 H 0.49074 0.43609 0.57133 0.00000
H490 H 0.50952 0.62735 0.47062 0.00000
H491 H 0.50358 0.61126 0.53348 0.00000
H492 H 0.49855 0.43455 0.51749 0.00000
H493 H 0.50447 0.45073 0.45465 0.00000
C494 C 0.51437 0.93312 0.45168 0.00000
O495 O 0.50897 0.88053 0.46629 0.00000
C496 C 0.51144 0.98637 0.47421 0.00000
C497 C 0.51585 0.04393 0.45993 0.00000
C498 C 0.51158 0.09146 0.48043 0.00000
C499 C 0.50290 0.08131 0.51532 0.00000
C500 C 0.49845 0.02373 0.52966 0.00000
C501 C 0.50272 0.97621 0.50917 0.00000
C502 C 0.50322 0.13711 0.53847 0.00000
O503 O 0.51424 0.18879 0.53192 0.00000
H504 H 0.52414 0.98032 0.40832 0.00000
N505 N 0.52015 0.94372 0.41513 0.00000
N506 N 0.49166 0.12957 0.56765 0.00000
H507 H 0.48558 0.09318 0.57210 0.00000
H508 H 0.52167 0.05068 0.43655 0.00000
H509 H 0.51454 0.13005 0.47084 0.00000
H510 H 0.49263 0.01699 0.55304 0.00000
H511 H 0.49975 0.93771 0.51872 0.00000
C512 C 0.01822 0.85626 0.00758 0.00000
O513 O 0.03466 0.87196 0.98845 0.00000
C514 C 0.00145 0.88922 0.00101 0.00000
C515 C 0.98376 0.87732 0.02165 0.00000
C516 C 0.96923 0.91152 0.01677 0.00000
C517 C 0.97241 0.95767 0.99113 0.00000
C518 C 0.99011 0.96971 0.97047 0.00000
C519 C 0.00464 0.93551 0.97534 0.00000
C520 C 0.95392 0.98260 0.98194 0.00000
O521 O 0.93566 0.95696 0.98934 0.00000
H522 H 0.00409 0.80774 0.04727 0.00000
N523 N 0.01582 0.81698 0.03708 0.00000
N524 N 0.95749 0.03312 0.96414 0.00000
H525 H 0.96989 0.04647 0.95772 0.00000
H526 H 0.98164 0.84636 0.03881 0.00000
H527 H 0.95737 0.90351 0.03063 0.00000
H528 H 0.99222 0.00010 0.95330 0.00000
H529 H 0.01648 0.94352 0.96155 0.00000
C530 C 0.97009 0.31863 0.96280 0.00000
O531 O 0.97192 0.26846 0.97756 0.00000
C532 C 0.98320 0.37546 0.97751 0.00000
C533 C 0.98146 0.43128 0.96457 0.00000
C534 C 0.99272 0.48296 0.98062 0.00000
C535 C 0.00576 0.47871 0.00966 0.00000
C536 C 0.00751 0.42290 0.02269 0.00000
C537 C 0.99626 0.37122 0.00664 0.00000
C538 C 0.02055 0.53630 0.01921 0.00000
O539 O 0.02471 0.58256 0.99844 0.00000
H540 H 0.95562 0.35983 0.92865 0.00000
N541 N 0.95517 0.32495 0.93791 0.00000
N542 N 0.02989 0.53619 0.05069 0.00000
H543 H 0.02752 0.50264 0.06244 0.00000
H544 H 0.97272 0.43406 0.94509 0.00000
H545 H 0.99154 0.52038 0.97192 0.00000
H546 H 0.01626 0.42012 0.04217 0.00000
H547 H 0.99742 0.33389 0.01533 0.00000
H548 H 0.97345 0.73373 0.85902 0.00000
N549 N 0.02341 0.67001 0.85261 0.00000
C550 C 0.96376 0.69438 0.77443 0.00000
C551 C 0.99262 0.69789 0.82847 0.00000
N552 N 0.00704 0.73129 0.89018 0.00000
C553 C 0.96149 0.71826 0.80774 0.00000
C554 C 0.98080 0.67280 0.76784 0.00000
H555 H 0.95013 0.73479 0.81238 0.00000
H556 H 0.98267 0.65476 0.74500 0.00000
H557 H 0.04760 0.64990 0.87720 0.00000
C558 C 0.03729 0.67142 0.88028 0.00000
H559 H 0.00692 0.66621 0.78848 0.00000
C560 C 0.00799 0.69959 0.85792 0.00000
C561 C 0.99475 0.67777 0.79431 0.00000
C562 C 0.97562 0.71883 0.83539 0.00000
C563 C 0.02089 0.73422 0.91661 0.00000
C564 C 0.03658 0.70261 0.91163 0.00000
H565 H 0.02025 0.75690 0.93821 0.00000
H566 H 0.46118 0.56075 0.58796 0.00000
N567 N 0.50520 0.70162 0.60591 0.00000
C568 C 0.45306 0.55131 0.67555 0.00000
C569 C 0.47852 0.61556 0.62380 0.00000
N570 N 0.49169 0.63054 0.55946 0.00000
C571 C 0.45097 0.53703 0.63954 0.00000
C572 C 0.46826 0.59769 0.68591 0.00000
H573 H 0.44094 0.50421 0.63206 0.00000
H574 H 0.46990 0.60955 0.71088 0.00000
H575 H 0.52604 0.76953 0.58613 0.00000
C576 C 0.51736 0.73336 0.57943 0.00000
H577 H 0.49185 0.65503 0.66796 0.00000
C578 C 0.49205 0.65016 0.59561 0.00000
C579 C 0.48074 0.62585 0.66006 0.00000
C580 C 0.46331 0.56994 0.61322 0.00000
C581 C 0.50395 0.66038 0.53395 0.00000
C582 C 0.51723 0.71429 0.54424 0.00000
H583 H 0.50380 0.64590 0.50951 0.00000
H584 H 0.52231 0.40469 0.36404 0.00000
N585 N 0.49113 0.24508 0.39280 0.00000
C586 C 0.53834 0.34505 0.29236 0.00000
C587 C 0.51521 0.31634 0.35506 0.00000
N588 N 0.50273 0.34359 0.41626 0.00000
C589 C 0.53623 0.38764 0.31680 0.00000
C590 C 0.52903 0.28725 0.29961 0.00000
H591 H 0.54299 0.42736 0.31275 0.00000
H592 H 0.52991 0.25648 0.28268 0.00000
H593 H 0.47109 0.19429 0.42631 0.00000
C594 C 0.47943 0.23246 0.42386 0.00000
H595 H 0.51350 0.23478 0.33670 0.00000
C596 C 0.50265 0.30151 0.38880 0.00000
C597 C 0.51870 0.27516 0.33107 0.00000
C598 C 0.52423 0.37401 0.34787 0.00000
C599 C 0.49185 0.33080 0.44700 0.00000
C600 C 0.47956 0.27301 0.45088 0.00000
H601 H 0.49233 0.35964 0.46581 0.00000
H602 H 0.01019 0.34339 0.20284 0.00000
N603 N 0.98986 0.34488 0.10025 0.00000
C604 C 0.04551 0.45604 0.18310 0.00000
C605 C 0.01360 0.37707 0.15165 0.00000
N606 N 0.98681 0.28446 0.15418 0.00000
C607 C 0.03455 0.41177 0.20323 0.00000
C608 C 0.04066 0.46038 0.14665 0.00000
H609 H 0.03804 0.40716 0.22806 0.00000
H610 H 0.04782 0.49159 0.13196 0.00000
H611 H 0.96888 0.31331 0.06213 0.00000
C612 C 0.97368 0.30559 0.08564 0.00000
H613 H 0.02336 0.42104 0.10664 0.00000
C614 C 0.99627 0.33453 0.13509 0.00000
C615 C 0.02564 0.41961 0.13225 0.00000
C616 C 0.01818 0.37284 0.18801 0.00000
C617 C 0.97148 0.24526 0.13953 0.00000
C618 C 0.96450 0.25646 0.10390 0.00000
H619 H 0.96539 0.21071 0.15262 0.00000
C620 C 0.63429 0.76964 0.38986 0.00000
C621 C 0.65067 0.74775 0.40317 0.00000
C622 C 0.64286 0.65510 0.50510 0.00000
O623 O 0.62973 0.69153 0.49401 0.00000
H624 H 0.63508 0.78847 0.36633 0.00000
H625 H 0.66025 0.70343 0.44658 0.00000
H626 H 0.60410 0.73617 0.46069 0.00000
H627 H 0.63947 0.64092 0.53037 0.00000
H628 H 0.64151 0.62072 0.48827 0.00000
H629 H 0.65679 0.67812 0.50441 0.00000
C630 C 0.64935 0.71973 0.43775 0.00000
C631 C 0.63209 0.71587 0.45905 0.00000
C632 C 0.61584 0.73837 0.44583 0.00000
C633 C 0.61682 0.76395 0.41098 0.00000
C634 C 0.13720 0.71325 0.05012 0.00000
C635 C 0.15049 0.71706 0.07994 0.00000
C636 C 0.12517 0.66381 0.18481 0.00000
O637 O 0.11326 0.67640 0.15550 0.00000
H638 H 0.14230 0.72230 0.02581 0.00000
H639 H 0.15184 0.70436 0.13592 0.00000
H640 H 0.09477 0.67511 0.09550 0.00000
H641 H 0.11693 0.65637 0.20733 0.00000
H642 H 0.13053 0.62825 0.17874 0.00000
H643 H 0.13639 0.69797 0.18888 0.00000
C644 C 0.14286 0.70329 0.11563 0.00000
C645 C 0.12219 0.68810 0.12128 0.00000
C646 C 0.10896 0.68497 0.09147 0.00000
C647 C 0.11651 0.69624 0.05593 0.00000
C648 C 0.85605 0.21071 0.93154 0.00000
C649 C 0.83792 0.23050 0.93002 0.00000
C650 C 0.80785 0.24422 0.03156 0.00000
O651 O 0.82299 0.21112 0.02853 0.00000
H652 H 0.86374 0.20940 0.90962 0.00000
H653 H 0.81464 0.24747 0.96181 0.00000
H654 H 0.85580 0.17888 0.01959 0.00000
H655 H 0.80178 0.23872 0.05631 0.00000
H656 H 0.81372 0.28670 0.02771 0.00000
H657 H 0.79747 0.23045 0.01280 0.00000
C658 C 0.82674 0.23267 0.96248 0.00000
C659 C 0.83338 0.21315 0.99557 0.00000
C660 C 0.85139 0.19281 0.99689 0.00000
C661 C 0.86288 0.19290 0.96509 0.00000
C662 C 0.36929 0.26479 0.59726 0.00000
C663 C 0.35088 0.27028 0.58189 0.00000
C664 C 0.35207 0.33819 0.47289 0.00000
O665 O 0.36963 0.34500 0.49421 0.00000
H666 H 0.36963 0.24736 0.62104 0.00000
H667 H 0.33798 0.29819 0.53573 0.00000
H668 H 0.39908 0.32732 0.53100 0.00000
H669 H 0.35512 0.36027 0.44965 0.00000
H670 H 0.34702 0.29567 0.46741 0.00000
H671 H 0.34179 0.35383 0.48667 0.00000
C672 C 0.35049 0.29564 0.54675 0.00000
C673 C 0.36842 0.31704 0.52809 0.00000
C674 C 0.38680 0.31204 0.54372 0.00000
C675 C 0.38714 0.28478 0.57784 0.00000
H676 H 0.76010 0.79463 0.63094 0.00000
H677 H 0.73563 0.77320 0.58332 0.00000
H678 H 0.76540 0.68748 0.63585 0.00000
H679 H 0.73527 0.69267 0.55089 0.00000
C680 C 0.75436 0.75324 0.62356 0.00000
C681 C 0.74688 0.75235 0.58390 0.00000
O682 O 0.76972 0.71907 0.62508 0.00000
O683 O 0.73950 0.69275 0.57218 0.00000
H684 H 0.24729 0.79192 0.85291 0.00000
H685 H 0.26910 0.75604 0.89423 0.00000
H686 H 0.22026 0.69554 0.85279 0.00000
H687 H 0.25555 0.68072 0.92873 0.00000
C688 C 0.24473 0.74963 0.85998 0.00000
C689 C 0.25446 0.74389 0.89728 0.00000
O690 O 0.22351 0.72774 0.86360 0.00000
O691 O 0.25004 0.68357 0.90878 0.00000
H692 H 0.75549 0.29270 0.12836 0.00000
H693 H 0.72872 0.25228 0.08759 0.00000
H694 H 0.77024 0.19854 0.12963 0.00000
H695 H 0.73249 0.17621 0.05404 0.00000
C696 C 0.75257 0.25006 0.12183 0.00000
C697 C 0.74188 0.24144 0.08465 0.00000
O698 O 0.77109 0.23008 0.11842 0.00000
O699 O 0.73849 0.18063 0.07392 0.00000
H700 H 0.25198 0.29126 0.35126 0.00000
H701 H 0.26923 0.25182 0.39898 0.00000
H702 H 0.22515 0.19571 0.34202 0.00000
H703 H 0.25230 0.17464 0.42827 0.00000
C704 C 0.24864 0.24852 0.35727 0.00000
C705 C 0.25452 0.24000 0.39714 0.00000
O706 O 0.22739 0.22715 0.35380 0.00000
O707 O 0.24886 0.17899 0.40685 0.00000
C708 C 0.01535 0.71493 0.57053 0.00000
C709 C 0.01792 0.66615 0.59164 0.00000
C710 C 0.01555 0.61021 0.57563 0.00000
C711 C 0.01074 0.60093 0.53822 0.00000
C712 C 0.00859 0.65061 0.51719 0.00000
C713 C 0.01060 0.70623 0.53328 0.00000
C714 C 0.01704 0.48892 0.41526 0.00000
C715 C 0.00198 0.45535 0.43737 0.00000
H716 H 0.02122 0.67134 0.61663 0.00000
H717 H 0.01720 0.57799 0.59005 0.00000
H718 H 0.00579 0.64592 0.49204 0.00000
H719 H 0.00874 0.73846 0.51894 0.00000
C720 C 0.99877 0.47441 0.47274 0.00000
C721 C 0.01022 0.52746 0.48717 0.00000
C722 C 0.02502 0.56133 0.46434 0.00000
C723 C 0.02849 0.54182 0.42930 0.00000
H724 H 0.99410 0.41991 0.42826 0.00000
H725 H 0.98876 0.45146 0.48728 0.00000
H726 H 0.03259 0.59746 0.47299 0.00000
N727 N 0.00734 0.54351 0.52356 0.00000
H728 H 0.03866 0.56447 0.41483 0.00000
H729 H 0.00298 0.51473 0.53867 0.00000
C730 C 0.98076 0.00447 0.53886 0.00000
C731 C 0.97065 0.05021 0.54716 0.00000
C732 C 0.98061 0.10919 0.54488 0.00000
C733 C 0.00010 0.12473 0.53402 0.00000
C734 C 0.01064 0.07830 0.52505 0.00000
C735 C 0.00010 0.01943 0.52796 0.00000
C736 C 0.05831 0.27017 0.46671 0.00000
C737 C 0.05590 0.29074 0.50251 0.00000
H738 H 0.95715 0.04089 0.55432 0.00000
H739 H 0.97374 0.13926 0.55068 0.00000
H740 H 0.02397 0.08743 0.51702 0.00000
H741 H 0.00777 0.98922 0.52252 0.00000
C742 C 0.04033 0.26144 0.52453 0.00000
C743 C 0.02680 0.21066 0.51195 0.00000
C744 C 0.02966 0.18983 0.47618 0.00000
C745 C 0.04497 0.21964 0.45394 0.00000
H746 H 0.06480 0.32440 0.51154 0.00000
H747 H 0.03881 0.27578 0.54827 0.00000
H748 H 0.02112 0.15540 0.46738 0.00000
N749 N 0.01065 0.18435 0.53406 0.00000
H750 H 0.04638 0.20567 0.42999 0.00000
H751 H 0.00628 0.20752 0.54948 0.00000
C752 C 0.52810 0.04203 0.03669 0.00000
C753 C 0.54116 0.00322 0.03034 0.00000
C754 C 0.53355 0.94410 0.02140 0.00000
C755 C 0.51282 0.92173 0.01816 0.00000
C756 C 0.49992 0.96157 0.02389 0.00000
C757 C 0.50747 0.02028 0.03347 0.00000
C758 C 0.45320 0.77764 0.95499 0.00000
C759 C 0.46130 0.74804 0.98299 0.00000
H760 H 0.55505 0.01723 0.03220 0.00000
H761 H 0.54240 0.91860 0.01742 0.00000
H762 H 0.48607 0.94813 0.02118 0.00000
H763 H 0.49860 0.04575 0.03784 0.00000
C764 C 0.47839 0.77653 0.00162 0.00000
C765 C 0.48786 0.83526 0.99336 0.00000
C766 C 0.47931 0.86482 0.96567 0.00000
C767 C 0.46247 0.83610 0.94660 0.00000
H768 H 0.45518 0.70892 0.98907 0.00000
H769 H 0.48371 0.75622 0.02008 0.00000
H770 H 0.48508 0.90436 0.96012 0.00000
N771 N 0.50566 0.86132 0.01119 0.00000
H772 H 0.45724 0.85620 0.92781 0.00000
H773 H 0.51306 0.83741 0.01875 0.00000
C774 C 0.49313 0.51618 0.90709 0.00000
C775 C 0.47418 0.48054 0.89973 0.00000
C776 C 0.46731 0.42928 0.91993 0.00000
C777 C 0.47887 0.41202 0.94820 0.00000
C778 C 0.49770 0.44893 0.95577 0.00000
C779 C 0.50473 0.49950 0.93520 0.00000
C780 C 0.48287 0.31301 0.07579 0.00000
C781 C 0.47921 0.26949 0.04802 0.00000
H782 H 0.46617 0.49133 0.88109 0.00000
H783 H 0.45470 0.40573 0.91463 0.00000
H784 H 0.50553 0.43912 0.97494 0.00000
H785 H 0.51745 0.52282 0.94023 0.00000
C786 C 0.47597 0.28532 0.01209 0.00000
C787 C 0.47642 0.34466 0.00249 0.00000
C788 C 0.48052 0.38803 0.03057 0.00000
C789 C 0.48339 0.37217 0.06654 0.00000
H790 H 0.47893 0.22965 0.05376 0.00000
H791 H 0.47344 0.25586 0.99387 0.00000
H792 H 0.48131 0.42805 0.02480 0.00000
N793 N 0.47197 0.35846 0.96652 0.00000
H794 H 0.48572 0.40158 0.08491 0.00000
H795 H 0.46407 0.33079 0.95425 0.00000
loop_
_geom_bond_atom_site_label_1
_geom_bond_atom_site_label_2
_geom_bond_distance
_geom_bond_site_symmetry_2
_ccdc_geom_bond_type
Cu0 N14 2.000 . S
Cu0 N17 2.024 . S
Cu0 N24 2.000 . S
Cu0 N26 2.024 . S
C1 C2 1.393 . A
C1 H16 0.940 . S
C1 N24 1.316 . A
C2 C3 1.366 . A
C2 H20 0.939 . S
C3 C9 1.391 . A
H4 C28 0.927 1_455 S
H5 C31 0.940 . S
H6 C32 0.941 . S
H7 C34 0.940 . S
H8 C35 0.927 1_545 S
C9 H22 0.940 . S
C9 N25 1.311 . A
C10 C11 1.397 . A
C10 H19 0.941 . S
C10 N26 1.325 1_455 A
C11 C12 1.375 1_455 A
C12 C13 1.391 . A
C12 H23 0.940 . S
C13 H21 0.940 . S
C13 N27 1.313 . A
N14 N15 1.345 . A
N14 C28 1.316 . A
N15 C31 1.311 . A
N17 N18 1.332 . A
N17 C32 1.325 . A
N18 C35 1.313 . A
N24 N25 1.345 . A
N26 N27 1.332 . A
C28 C29 1.393 . A
C29 C30 1.366 . A
C29 H36 0.944 1_655 S
C30 C31 1.391 . A
C32 C33 1.397 . A
C33 C34 1.375 . A
C34 C35 1.391 . A
Cu37 N51 2.000 . S
Cu37 N54 2.024 . S
Cu37 N61 2.000 . S
Cu37 N63 2.024 . S
C38 C39 1.393 . A
C38 H53 0.940 . S
C38 N61 1.316 . A
C39 C40 1.366 . A
C39 H57 0.939 . S
C40 C46 1.391 . A
H41 C65 0.940 . S
H42 C68 0.940 . S
H43 C69 0.941 . S
H44 C71 0.940 . S
H45 C72 0.940 . S
C46 H59 0.940 . S
C46 N62 1.311 . A
C47 C48 1.397 . A
C47 H56 0.941 . S
C47 N63 1.325 . A
C48 C49 1.375 . A
C49 C50 1.391 . A
C49 H60 0.940 . S
C50 H58 0.940 . S
C50 N64 1.313 . A
N51 N52 1.345 . A
N51 C65 1.316 . A
N52 C68 1.311 . A
N54 N55 1.332 . A
N54 C69 1.325 . A
N55 C72 1.313 . A
N61 N62 1.345 . A
N63 N64 1.332 . A
C65 C66 1.393 . A
C66 C67 1.366 . A
C66 H73 0.939 . S
C67 C68 1.391 . A
C69 C70 1.397 . A
C70 C71 1.375 . A
C71 C72 1.391 . A
Cu74 N88 2.000 . S
Cu74 N91 2.024 . S
Cu74 N98 2.000 . S
Cu74 N100 2.024 . S
C75 C76 1.393 . A
C75 H90 0.940 . S
C75 N98 1.316 . A
C76 C77 1.366 . A
C76 H94 0.939 . S
C77 C83 1.391 . A
H78 C102 0.940 . S
H79 C105 0.940 . S
H80 C106 0.941 . S
H81 C108 0.940 . S
H82 C109 0.940 . S
C83 H96 0.940 . S
C83 N99 1.311 . A
C84 C85 1.397 . A
C84 H93 0.941 . S
C84 N100 1.325 . A
C85 C86 1.375 . A
C86 C87 1.391 . A
C86 H97 0.940 . S
C87 H95 0.940 . S
C87 N101 1.313 . A
N88 N89 1.345 . A
N88 C102 1.316 . A
N89 C105 1.311 . A
N91 N92 1.332 . A
N91 C106 1.325 . A
N92 C109 1.313 . A
N98 N99 1.345 . A
N100 N101 1.332 . A
C102 C103 1.393 . A
C103 C104 1.366 . A
C103 H110 0.939 . S
C104 C105 1.391 . A
C106 C107 1.397 . A
C107 C108 1.375 . A
C108 C109 1.391 . A
Cu111 N125 2.000 . S
Cu111 N128 2.024 . S
Cu111 N135 2.000 . S
Cu111 N137 2.024 . S
C112 C113 1.393 . A
C112 H127 0.940 . S
C112 N135 1.316 . A
C113 C114 1.366 . A
C113 H131 0.939 . S
C114 C120 1.391 . A
H115 C139 0.940 . S
H116 C142 0.940 . S
H117 C143 0.941 . S
H118 C145 0.940 . S
H119 C146 0.940 . S
C120 H133 0.940 . S
C120 N136 1.311 . A
C121 C122 1.397 . A
C121 H130 0.941 . S
C121 N137 1.325 . A
C122 C123 1.375 . A
C123 C124 1.391 . A
C123 H134 0.940 . S
C124 H132 0.940 . S
C124 N138 1.313 . A
N125 N126 1.345 . A
N125 C139 1.316 . A
N126 C142 1.311 . A
N128 N129 1.332 . A
N128 C143 1.325 . A
N129 C146 1.313 . A
N135 N136 1.345 . A
N137 N138 1.332 . A
C139 C140 1.393 . A
C140 C141 1.366 . A
C140 H147 0.939 . S
C141 C142 1.391 . A
C143 C144 1.397 . A
C144 C145 1.375 . A
C145 C146 1.391 . A
O148 C155 1.263 . A
O148 In156 2.023 . S
O149 C155 1.258 . A
O149 In156 2.063 . S
O150 In156 1.999 . S
O150 C157 1.253 . A
O151 In156 1.997 . S
O151 C157 1.251 . A
C152 O159 1.263 . A
C152 O160 1.260 . A
O153 In156 2.035 . S
O153 C158 1.399 . S
O154 C158 1.220 . D
In156 O159 2.019 . S
In156 O160 2.062 . S
O161 C168 1.263 . A
O161 In169 2.023 . S
O162 C168 1.258 . A
O162 In169 2.063 . S
O163 In169 1.999 . S
O163 C170 1.253 . A
O164 In169 1.997 . S
O164 C170 1.251 . A
C165 O172 1.263 . A
C165 O173 1.260 . A
O166 In169 2.035 . S
O166 C171 1.399 . S
O167 C171 1.220 . D
In169 O172 2.019 . S
In169 O173 2.062 . S
O174 C181 1.263 . A
O174 In182 2.023 . S
O175 C181 1.258 . A
O175 In182 2.063 . S
O176 In182 1.999 . S
O176 C183 1.253 . A
O177 In182 1.997 . S
O177 C183 1.251 . A
C178 O185 1.263 . A
C178 O186 1.260 . A
O179 In182 2.035 . S
O179 C184 1.399 . S
O180 C184 1.220 . D
In182 O185 2.019 . S
In182 O186 2.062 . S
O187 C194 1.263 . A
O187 In195 2.023 . S
O188 C194 1.258 . A
O188 In195 2.063 . S
O189 In195 1.999 . S
O189 C196 1.253 . A
O190 In195 1.997 . S
O190 C196 1.251 . A
C191 O198 1.263 . A
C191 O199 1.260 . A
O192 In195 2.035 . S
O192 C197 1.399 . S
O193 C197 1.220 . D
In195 O198 2.019 . S
In195 O199 2.062 . S
C200 O204 1.236 . A
C200 O212 1.236 . A
C201 O205 1.236 . A
C201 O213 1.236 . A
Fe202 Fe203 2.989 . S
Fe202 O205 2.047 . S
Fe202 O207 2.047 . S
Fe202 O208 2.047 . S
Fe202 O212 2.047 . S
Fe203 O204 2.047 . S
Fe203 O206 2.047 . S
Fe203 O209 2.047 . S
Fe203 O213 2.047 . S
O206 C210 1.236 . A
O207 C211 1.236 . A
O208 C210 1.236 . A
O209 C211 1.236 . A
C214 O218 1.236 . A
C214 O226 1.236 . A
C215 O219 1.236 1_554 A
C215 O227 1.236 . A
Fe216 Fe217 2.999 . S
Fe216 O219 2.046 1_554 S
Fe216 O221 2.052 . S
Fe216 O222 2.050 . S
Fe216 O226 2.048 . S
Fe217 O218 2.047 . S
Fe217 O220 2.047 . S
Fe217 O223 2.047 . S
Fe217 O227 2.047 . S
O220 C224 1.236 . A
O221 C225 1.236 . A
O222 C224 1.236 . A
O223 C225 1.236 . A
C228 O232 1.236 . A
C228 O240 1.236 . A
C229 O233 1.236 . A
C229 O241 1.236 . A
Fe230 Fe231 2.989 . S
Fe230 O233 2.047 . S
Fe230 O235 2.047 . S
Fe230 O236 2.047 . S
Fe230 O240 2.047 . S
Fe231 O232 2.047 . S
Fe231 O234 2.047 . S
Fe231 O237 2.047 . S
Fe231 O241 2.047 . S
O234 C238 1.236 . A
O235 C239 1.236 . A
O236 C238 1.236 . A
O237 C239 1.236 . A
C242 O246 1.236 . A
C242 O254 1.236 . A
C243 O247 1.236 . A
C243 O255 1.236 . A
Fe244 Fe245 2.989 . S
Fe244 O247 2.047 . S
Fe244 O249 2.047 . S
Fe244 O250 2.047 . S
Fe244 O254 2.047 . S
Fe245 O246 2.047 . S
Fe245 O248 2.047 . S
Fe245 O251 2.047 . S
Fe245 O255 2.047 . S
O248 C252 1.236 . A
O249 C253 1.236 . A
O250 C252 1.236 . A
O251 C253 1.236 . A
O256 C272 1.196 . D
O257 C272 1.332 . S
O257 C273 1.465 . S
O258 C274 1.438 . S
O258 C275 1.359 . S
O259 C275 1.216 . D
O260 C276 1.196 . D
O261 C276 1.332 . S
O261 C277 1.465 . S
O262 C278 1.438 . S
O262 C279 1.359 . S
O263 C279 1.216 . D
H264 C273 0.951 . S
H265 C273 0.946 . S
H266 C274 0.952 . S
H267 C274 0.945 . S
H268 C277 0.951 . S
H269 C277 0.946 . S
H270 C278 0.951 . S
H271 C278 0.945 . S
C273 C280 1.542 . S
C274 C280 1.518 . S
C277 C280 1.542 . S
C278 C280 1.518 . S
O281 C297 1.196 1_556 D
O282 C297 1.332 . S
O282 C298 1.465 1_554 S
O283 C299 1.438 . S
O283 C300 1.359 . S
O284 C300 1.216 . D
O285 C301 1.199 . D
O286 C301 1.332 . S
O286 C302 1.465 . S
O287 C303 1.438 . S
O287 C304 1.359 . S
O288 C304 1.216 . D
H289 C298 0.951 . S
H290 C298 0.946 . S
H291 C299 0.952 . S
H292 C299 0.945 . S
H293 C302 0.951 . S
H294 C302 0.946 . S
H295 C303 0.951 1_556 S
H296 C303 0.945 . S
C298 C305 1.542 1_556 S
C299 C305 1.518 1_556 S
C302 C305 1.542 . S
C303 C305 1.518 . S
O306 C322 1.196 1_554 D
O307 C322 1.332 . S
O307 C323 1.465 1_556 S
O308 C324 1.438 . S
O308 C325 1.359 . S
O309 C325 1.216 . D
O310 C326 1.196 . D
O311 C326 1.332 . S
O311 C327 1.465 . S
O312 C328 1.438 . S
O312 C329 1.359 . S
O313 C329 1.216 . D
H314 C323 0.951 . S
H315 C323 0.946 . S
H316 C324 0.952 . S
H317 C324 0.945 . S
H318 C327 0.951 . S
H319 C327 0.946 . S
H320 C328 0.951 1_554 S
H321 C328 0.945 . S
C323 C330 1.542 1_554 S
C324 C330 1.518 1_554 S
C327 C330 1.542 . S
C328 C330 1.518 . S
O331 C347 1.196 . D
O332 C347 1.332 . S
O332 C348 1.465 . S
O333 C349 1.438 . S
O333 C350 1.359 . S
O334 C350 1.216 . D
O335 C351 1.196 . D
O336 C351 1.332 . S
O336 C352 1.465 . S
O337 C353 1.438 . S
O337 C354 1.359 . S
O338 C354 1.216 . D
H339 C348 0.951 . S
H340 C348 0.946 . S
H341 C349 0.952 . S
H342 C349 0.945 . S
H343 C352 0.951 . S
H344 C352 0.946 . S
H345 C353 0.951 . S
H346 C353 0.945 . S
C348 C355 1.542 . S
C349 C355 1.518 . S
C352 C355 1.542 . S
C353 C355 1.518 . S
C356 C357 1.540 . A
C356 C361 1.540 . A
C356 H366 1.140 . S
C357 C358 1.540 . A
C357 H367 1.140 . S
C358 C359 1.540 . A
C359 C360 1.540 . A
C359 C365 1.540 . A
C360 C361 1.540 . A
C360 C362 1.540 . A
C362 N363 1.540 . A
C362 H368 1.140 . S
N363 N364 1.540 . A
N364 C365 1.540 . A
C365 H369 1.140 . S
C370 C371 1.540 . A
C370 C375 1.540 . A
C370 H380 1.140 . S
C371 C372 1.540 . A
C371 H381 1.140 . S
C372 C373 1.540 . A
C373 C374 1.540 . A
C373 C379 1.540 . A
C374 C375 1.540 . A
C374 C376 1.540 . A
C376 N377 1.540 . A
C376 H382 1.140 . S
N377 N378 1.540 . A
N378 C379 1.540 . A
C379 H383 1.140 . S
C384 C385 1.540 . A
C384 C389 1.540 . A
C384 H394 1.140 . S
C385 C386 1.540 . A
C385 H395 1.140 . S
C386 C387 1.540 . A
C387 C388 1.540 . A
C387 C393 1.540 . A
C388 C389 1.540 . A
C388 C390 1.540 . A
C390 N391 1.540 . A
C390 H396 1.140 . S
N391 N392 1.540 . A
N392 C393 1.540 . A
C393 H397 1.140 . S
C398 C399 1.540 . A
C398 C403 1.540 . A
C398 H408 1.140 . S
C399 C400 1.540 . A
C399 H409 1.140 . S
C400 C401 1.540 . A
C401 C402 1.540 . A
C401 C407 1.540 . A
C402 C403 1.540 . A
C402 C404 1.540 . A
C404 N405 1.540 . A
C404 H410 1.140 . S
N405 N406 1.540 . A
N406 C407 1.540 . A
C407 H411 1.140 . S
H412 C416 0.980 . S
H413 C417 0.978 . S
H414 O418 0.820 . S
H415 O419 0.820 . S
C416 C417 1.518 . S
C416 O418 1.426 . S
C417 O419 1.412 . S
H420 C424 0.980 . S
H421 C425 0.978 . S
H422 O426 0.820 . S
H423 O427 0.820 . S
C424 C425 1.518 1_565 S
C424 O426 1.426 1_565 S
C425 O427 1.412 . S
H428 C432 0.980 . S
H429 C433 0.978 . S
H430 O434 0.820 . S
H431 O435 0.820 . S
C432 C433 1.518 1_565 S
C432 O434 1.426 . S
C433 O435 1.412 . S
H436 C440 0.980 . S
H437 C441 0.978 . S
H438 O442 0.820 . S
H439 O443 0.820 . S
C440 C441 1.518 . S
C440 O442 1.426 . S
C441 O443 1.412 . S
H444 C448 0.980 1_565 S
H445 C449 0.978 . S
H446 O450 0.820 . S
H447 O451 0.820 1_565 S
C448 C449 1.518 1_545 S
C448 O450 1.426 . S
C449 O451 1.412 1_565 S
H452 C456 0.980 . S
H453 C457 0.978 . S
H454 O458 0.820 . S
H455 O459 0.820 . S
C456 C457 1.518 1_545 S
C456 O458 1.426 1_545 S
C457 O459 1.412 . S
H460 C464 0.980 . S
H461 C465 0.978 . S
H462 O466 0.820 . S
H463 O467 0.820 . S
C464 C465 1.518 . S
C464 O466 1.426 . S
C465 O467 1.412 . S
H468 C472 0.980 . S
H469 C473 0.978 . S
H470 O474 0.820 . S
H471 O475 0.820 . S
C472 C473 1.518 . S
C472 O474 1.426 . S
C473 O475 1.412 . S
C476 O477 1.295 . D
C476 C478 1.507 . S
C476 N487 1.383 . S
C478 C479 1.388 . A
C478 C483 1.392 . A
C479 C480 1.389 . A
C479 H490 0.931 . S
C480 C481 1.389 . A
C480 H491 0.931 . S
C481 C482 1.389 . A
C481 C484 1.517 . S
C482 C483 1.389 . A
C482 H492 0.931 . S
C483 H493 0.928 . S
C484 O485 1.281 . D
C484 N488 1.301 . S
H486 N487 0.860 . S
N488 H489 0.863 . S
C494 O495 1.295 . D
C494 C496 1.507 . S
C494 N505 1.383 . S
C496 C497 1.388 1_565 A
C496 C501 1.392 . A
C497 C498 1.389 . A
C497 H508 0.931 . S
C498 C499 1.389 . A
C498 H509 0.931 . S
C499 C500 1.389 . A
C499 C502 1.517 . S
C500 C501 1.389 1_545 A
C500 H510 0.931 . S
C501 H511 0.928 . S
C502 O503 1.281 . D
C502 N506 1.301 . S
H504 N505 0.860 . S
N506 H507 0.863 . S
C512 O513 1.295 1_554 D
C512 C514 1.507 . S
C512 N523 1.383 . S
C514 C515 1.388 1_455 A
C514 C519 1.392 1_554 A
C515 C516 1.389 . A
C515 H526 0.931 . S
C516 C517 1.389 1_554 A
C516 H527 0.931 . S
C517 C518 1.389 . A
C517 C520 1.517 . S
C518 C519 1.389 1_655 A
C518 H528 0.921 1_565 S
C519 H529 0.928 . S
C520 O521 1.281 . D
C520 N524 1.301 1_565 S
H522 N523 0.860 . S
N524 H525 0.863 . S
C530 O531 1.295 . D
C530 C532 1.507 . S
C530 N541 1.383 . S
C532 C533 1.388 . A
C532 C537 1.392 1_556 A
C533 C534 1.389 . A
C533 H544 0.931 . S
C534 C535 1.389 1_656 A
C534 H545 0.931 . S
C535 C536 1.389 . A
C535 C538 1.517 . S
C536 C537 1.389 1_455 A
C536 H546 0.931 . S
C537 H547 0.928 . S
C538 O539 1.281 1_554 D
C538 N542 1.301 . S
H540 N541 0.860 . S
N542 H543 0.863 . S
H548 C562 0.939 . S
N549 C558 1.368 . A
N549 C560 1.369 . A
C550 C553 1.339 . A
C550 C554 1.366 . A
C551 C560 1.484 1_655 S
C551 C561 1.332 . A
C551 C562 1.358 . A
N552 C560 1.376 . A
N552 C563 1.330 . A
C553 H555 0.939 . S
C553 C562 1.382 . A
C554 H556 0.940 . S
C554 C561 1.332 . A
H557 C558 0.940 . S
C558 C564 1.340 . A
H559 C561 0.939 1_455 S
C563 C564 1.414 . A
C563 H565 0.940 . S
H566 C580 0.939 . S
N567 C576 1.368 . A
N567 C578 1.369 . A
C568 C571 1.339 . A
C568 C572 1.366 . A
C569 C578 1.484 . S
C569 C579 1.332 . A
C569 C580 1.358 . A
N570 C578 1.376 . A
N570 C581 1.330 . A
C571 H573 0.939 . S
C571 C580 1.382 . A
C572 H574 0.940 . S
C572 C579 1.332 . A
H575 C576 0.940 . S
C576 C582 1.340 . A
H577 C579 0.939 . S
C581 C582 1.414 . A
C581 H583 0.940 . S
H584 C598 0.939 . S
N585 C594 1.368 . A
N585 C596 1.369 . A
C586 C589 1.339 . A
C586 C590 1.366 . A
C587 C596 1.484 . S
C587 C597 1.332 . A
C587 C598 1.358 . A
N588 C596 1.376 . A
N588 C599 1.330 . A
C589 H591 0.939 . S
C589 C598 1.382 . A
C590 H592 0.940 . S
C590 C597 1.332 . A
H593 C594 0.940 . S
C594 C600 1.340 . A
H595 C597 0.939 . S
C599 C600 1.414 . A
C599 H601 0.940 . S
H602 C616 0.939 . S
N603 C612 1.368 . A
N603 C614 1.369 . A
C604 C607 1.339 . A
C604 C608 1.366 . A
C605 C614 1.484 1_455 S
C605 C615 1.332 . A
C605 C616 1.358 . A
N606 C614 1.376 . A
N606 C617 1.330 . A
C607 H609 0.939 . S
C607 C616 1.382 . A
C608 H610 0.940 . S
C608 C615 1.332 . A
H611 C612 0.940 . S
C612 C618 1.340 . A
H613 C615 0.939 . S
C617 C618 1.414 . A
C617 H619 0.940 . S
C620 C621 1.395 . A
C620 H624 0.950 . S
C620 C633 1.389 . A
C621 C630 1.400 . A
C622 O623 1.398 . S
C622 H627 0.980 . S
C622 H628 0.979 . S
C622 H629 0.980 . S
O623 C631 1.377 . S
H625 C630 0.949 . S
H626 C632 0.951 . S
C630 C631 1.385 . A
C631 C632 1.393 . A
C632 C633 1.385 . A
C634 C635 1.395 . A
C634 H638 0.950 . S
C634 C647 1.389 . A
C635 C644 1.400 . A
C636 O637 1.398 . S
C636 H641 0.980 . S
C636 H642 0.979 . S
C636 H643 0.980 . S
O637 C645 1.377 . S
H639 C644 0.949 . S
H640 C646 0.951 . S
C644 C645 1.385 . A
C645 C646 1.393 . A
C646 C647 1.385 . A
C648 C649 1.395 . A
C648 H652 0.950 . S
C648 C661 1.389 . A
C649 C658 1.400 . A
C650 O651 1.398 . S
C650 H655 0.980 . S
C650 H656 0.979 . S
C650 H657 0.980 . S
O651 C659 1.377 1_554 S
H653 C658 0.949 . S
H654 C660 0.951 1_554 S
C658 C659 1.385 . A
C659 C660 1.393 . A
C660 C661 1.385 . A
C662 C663 1.395 . A
C662 H666 0.950 . S
C662 C675 1.389 . A
C663 C672 1.400 . A
C664 O665 1.398 . S
C664 H669 0.980 . S
C664 H670 0.979 . S
C664 H671 0.980 . S
O665 C673 1.377 . S
H667 C672 0.949 . S
H668 C674 0.951 . S
C672 C673 1.385 . A
C673 C674 1.393 . A
C674 C675 1.385 . A
H676 C680 0.980 . S
H677 C681 0.978 . S
H678 O682 0.820 . S
H679 O683 0.820 . S
C680 C681 1.518 . S
C680 O682 1.426 . S
C681 O683 1.412 . S
H684 C688 0.980 . S
H685 C689 0.978 . S
H686 O690 0.820 . S
H687 O691 0.820 . S
C688 C689 1.518 . S
C688 O690 1.426 . S
C689 O691 1.412 . S
H692 C696 0.980 . S
H693 C697 0.978 . S
H694 O698 0.820 . S
H695 O699 0.820 . S
C696 C697 1.518 . S
C696 O698 1.426 . S
C697 O699 1.412 . S
H700 C704 0.980 . S
H701 C705 0.978 . S
H702 O706 0.820 . S
H703 O707 0.820 . S
C704 C705 1.518 . S
C704 O706 1.426 . S
C705 O707 1.412 . S
C708 C709 1.394 . A
C708 C713 1.387 . A
C709 C710 1.378 . A
C709 H716 0.931 . S
C710 C711 1.394 . A
C710 H717 0.929 . S
C711 C712 1.401 . A
C711 N727 1.386 . S
C712 C713 1.375 . A
C712 H718 0.929 . S
C713 H719 0.932 . S
C714 C715 1.394 . A
C714 C723 1.387 . A
C715 C720 1.378 1_455 A
C715 H724 0.931 1_455 S
C720 C721 1.394 1_655 A
C720 H725 0.929 . S
C721 C722 1.401 . A
C721 N727 1.386 . S
C722 C723 1.375 . A
C722 H726 0.929 . S
C723 H728 0.932 . S
N727 H729 0.860 . S
C730 C731 1.394 . A
C730 C735 1.341 1_655 A
C731 C732 1.378 . A
C731 H738 0.931 . S
C732 C733 1.351 1_655 A
C732 H739 0.929 . S
C733 C734 1.431 . A
C733 N749 1.400 . S
C734 C735 1.389 . A
C734 H740 0.929 . S
C735 H741 0.965 1_545 S
C736 C737 1.394 . A
C736 C745 1.387 . A
C737 C742 1.378 . A
C737 H746 0.931 . S
C742 C743 1.394 . A
C742 H747 0.929 . S
C743 C744 1.401 . A
C743 N749 1.386 . S
C744 C745 1.375 . A
C744 H748 0.929 . S
C745 H750 0.932 . S
N749 H751 0.860 . S
C752 C753 1.394 . A
C752 C757 1.387 . A
C753 C754 1.378 1_545 A
C753 H760 0.931 . S
C754 C755 1.394 . A
C754 H761 0.929 . S
C755 C756 1.401 . A
C755 N771 1.386 . S
C756 C757 1.375 1_565 A
C756 H762 0.929 . S
C757 H763 0.932 . S
C758 C759 1.394 . A
C758 C767 1.387 . A
C759 C764 1.378 1_556 A
C759 H768 0.931 . S
C764 C765 1.394 1_554 A
C764 H769 0.929 . S
C765 C766 1.401 . A
C765 N771 1.386 1_556 S
C766 C767 1.375 . A
C766 H770 0.929 . S
C767 H772 0.932 . S
N771 H773 0.860 . S
C774 C775 1.394 . A
C774 C779 1.387 . A
C775 C776 1.378 . A
C775 H782 0.931 . S
C776 C777 1.394 . A
C776 H783 0.929 . S
C777 C778 1.401 . A
C777 N793 1.386 . S
C778 C779 1.375 . A
C778 H784 0.929 . S
C779 H785 0.932 . S
C780 C781 1.394 . A
C780 C789 1.387 . A
C781 C786 1.378 . A
C781 H790 0.931 . S
C786 C787 1.394 . A
C786 H791 0.929 1_554 S
C787 C788 1.401 . A
C787 N793 1.386 1_554 S
C788 C789 1.375 . A
C788 H792 0.929 . S
C789 H794 0.932 . S
N793 H795 0.860 . S
C361 C155 2.196 . S
C358 C33 2.339 . S
C372 C48 1.754 . S
C375 C168 1.674 . S
C386 C107 2.072 . S
C389 C181 1.941 . S
C403 C194 1.669 . S
C400 C122 1.748 . S
C417 C238 3.829 . S
C416 C158 3.853 . S
C425 C228 2.827 . S
C424 C157 3.081 . S
C432 C171 3.536 . S
C433 C252 3.062 . S
C441 C200 3.387 . S
C440 C184 3.769 . S
C448 C197 3.591 . S
C449 C224 3.203 . S
C456 C183 3.101 . S
C457 C210 3.182 . S
C464 C170 3.316 . S
C465 C242 3.484 . S
C473 C214 3.541 . S
C472 C196 3.410 . S
N487 C279 0.633 . S
N488 C347 0.587 . S
N505 C276 1.691 . S
N506 C350 1.450 . S
N523 C304 1.140 . S
N524 C326 0.993 . S
N541 C329 1.108 . S
N542 C301 1.180 . S
C564 C300 0.849 . S
C550 C30 0.573 . S
C582 C275 0.948 . S
C568 C40 0.932 . S
C600 C354 0.738 . S
C586 C104 0.685 . S
C618 C325 0.997 . S
C604 C114 0.851 . S
C633 C272 1.871 . S
C621 C211 2.267 . S
C635 C225 1.833 . S
C647 C297 2.008 . S
C661 C322 1.887 . S
C649 C229 1.443 . S
C663 C253 1.815 . S
C675 C351 1.935 . S
C681 C201 3.551 . S
C680 C152 4.169 . S
C689 C215 4.315 1_556 S
C688 C165 4.256 . S
C697 C239 4.260 1_554 S
C696 C178 4.235 . S
C705 C243 4.297 . S
C704 C191 4.207 . S
C708 C11 1.500 . S
C714 C144 1.550 . S
C730 C3 1.642 1_545 S
C736 C141 1.323 . S
C752 C77 1.676 . S
C758 C67 1.311 . S
C774 C70 1.816 . S
C780 C85 1.762 . S
