# Generated by pormake.
# Topology mco, (3,3,3,4)-cn, num edge types: 3
# Building blocks:
#     Node 0, Type 0, BuildingBlock: N474, # of connection points: 3
#     Node 1, Type 1, BuildingBlock: N186, # of connection points: 3
#     Node 2, Type 1, BuildingBlock: N186, # of connection points: 3
#     Node 3, Type 2, BuildingBlock: N410, # of connection points: 3
#     Node 4, Type 2, BuildingBlock: N410, # of connection points: 3
#     Node 5, Type 2, BuildingBlock: N410, # of connection points: 3
#     Node 6, Type 3, BuildingBlock: N317, # of connection points: 4
#     Node 7, Type 3, BuildingBlock: N317, # of connection points: 4
#     Node 8, Type 3, BuildingBlock: N317, # of connection points: 4
#     Edge 9, Type (1, 3), BuildingBlock: E109, # of connection points: 2
#     Edge 10, Type (1, 3), BuildingBlock: E109, # of connection points: 2
#     Edge 11, Type (1, 3), BuildingBlock: E109, # of connection points: 2
#     Edge 12, Type (1, 3), BuildingBlock: E109, # of connection points: 2
#     Edge 13, Type (1, 3), BuildingBlock: E109, # of connection points: 2
#     Edge 14, Type (1, 3), BuildingBlock: E109, # of connection points: 2
#     Edge 15, Type (0, 2), BuildingBlock: E91, # of connection points: 2
#     Edge 16, Type (0, 2), BuildingBlock: E91, # of connection points: 2
#     Edge 17, Type (0, 2), BuildingBlock: E91, # of connection points: 2
#     Edge 18, Type (2, 3), BuildingBlock: E156, # of connection points: 2
#     Edge 19, Type (2, 3), BuildingBlock: E156, # of connection points: 2
#     Edge 20, Type (2, 3), BuildingBlock: E156, # of connection points: 2
#     Edge 21, Type (2, 3), BuildingBlock: E156, # of connection points: 2
#     Edge 22, Type (2, 3), BuildingBlock: E156, # of connection points: 2
#     Edge 23, Type (2, 3), BuildingBlock: E156, # of connection points: 2
# Relax obj value: 0.019
# Max RMSD: 0.285
# Mean RMSD: 0.117
data_mco+N474+N186+N410+N317+E91+E109+E156
_symmetry_space_group_name_H-M    P1
_symmetry_Int_Tables_number       1
_symmetry_cell_setting            triclinic
loop_
_symmetry_equiv_pos_as_xyz
'x, y, z'
_cell_length_a     51.651
_cell_length_b     51.557
_cell_length_c     25.537
_cell_angle_alpha  90.489
_cell_angle_beta   90.490
_cell_angle_gamma  122.419
loop_
_atom_site_label
_atom_site_type_symbol
_atom_site_fract_x
_atom_site_fract_y
_atom_site_fract_z
_atom_type_partial_charge
C0 C 0.07676 0.13542 0.02428 0.00000
C1 C 0.10419 0.16874 0.04143 0.00000
C2 C 0.13365 0.17468 0.02232 0.00000
C3 C 0.13718 0.14734 0.04151 0.00000
C4 C 0.11363 0.11592 0.02559 0.00000
C5 C 0.08142 0.11116 0.04354 0.00000
H6 H 0.07573 0.13423 0.98590 0.00000
H7 H 0.10505 0.17059 0.07929 0.00000
H8 H 0.10056 0.18400 0.02751 0.00000
H9 H 0.13350 0.17492 0.98392 0.00000
H10 H 0.13817 0.14815 0.07951 0.00000
H11 H 0.15675 0.15143 0.02946 0.00000
H12 H 0.11324 0.11538 0.98713 0.00000
H13 H 0.08073 0.11097 0.08150 0.00000
H14 H 0.06474 0.09134 0.03068 0.00000
C15 C 0.83875 0.52057 0.53913 0.00000
Ag16 Ag 0.76012 0.46642 0.51631 0.00000
C17 C 0.73872 0.39347 0.53412 0.00000
C18 C 0.72796 0.50732 0.53962 0.00000
N19 N 0.81355 0.50124 0.54166 0.00000
N20 N 0.74672 0.41818 0.52365 0.00000
N21 N 0.73853 0.49264 0.54024 0.00000
C22 C 0.48548 0.87296 0.54712 0.00000
Ag23 Ag 0.43185 0.79443 0.56853 0.00000
C24 C 0.35867 0.77290 0.55231 0.00000
C25 C 0.47206 0.76189 0.54250 0.00000
N26 N 0.46610 0.84769 0.54420 0.00000
N27 N 0.38356 0.78100 0.56227 0.00000
N28 N 0.45742 0.77250 0.54282 0.00000
C29 C 0.50330 0.53292 0.88570 0.00000
C30 C 0.52057 0.53489 0.92753 0.00000
C31 C 0.50832 0.52530 0.97668 0.00000
C32 C 0.47799 0.51274 0.98420 0.00000
C33 C 0.45995 0.51165 0.94423 0.00000
C34 C 0.47236 0.52111 0.89445 0.00000
N35 N 0.46462 0.50180 0.03444 0.00000
H36 H 0.39485 0.40560 0.98923 0.00000
H37 H 0.44085 0.45121 0.97988 0.00000
H38 H 0.41970 0.48886 0.09367 0.00000
H39 H 0.37334 0.44252 0.10424 0.00000
H40 H 0.49833 0.50772 0.19672 0.00000
H41 H 0.46955 0.48127 0.12392 0.00000
H42 H 0.49525 0.55955 0.05422 0.00000
H43 H 0.52504 0.58654 0.12735 0.00000
C44 C 0.37899 0.41854 0.04744 0.00000
C45 C 0.39958 0.42210 0.01123 0.00000
C46 C 0.42749 0.44941 0.00590 0.00000
C47 C 0.43545 0.47357 0.03822 0.00000
C48 C 0.41503 0.47176 0.07340 0.00000
C49 C 0.38694 0.44401 0.07902 0.00000
C50 C 0.51503 0.54976 0.17067 0.00000
C51 C 0.49831 0.51869 0.16802 0.00000
C52 C 0.48125 0.50266 0.12400 0.00000
C53 C 0.48140 0.51791 0.08105 0.00000
C54 C 0.49650 0.54903 0.08256 0.00000
C55 C 0.51396 0.56517 0.12697 0.00000
H56 H 0.45975 0.51949 0.86673 0.00000
H57 H 0.52100 0.52755 0.00479 0.00000
H58 H 0.43946 0.50465 0.94991 0.00000
H59 H 0.54137 0.54292 0.92308 0.00000
C60 C 0.11765 0.76831 0.19462 0.00000
C61 C 0.13335 0.76719 0.15346 0.00000
C62 C 0.13076 0.77627 0.10396 0.00000
C63 C 0.11266 0.78744 0.09542 0.00000
C64 C 0.09522 0.78759 0.13470 0.00000
C65 C 0.09812 0.77866 0.18482 0.00000
N66 N 0.11032 0.79784 0.04481 0.00000
H67 H 0.13899 0.89295 0.08870 0.00000
H68 H 0.13871 0.84866 0.09920 0.00000
H69 H 0.07760 0.80847 0.98400 0.00000
H70 H 0.07828 0.85349 0.97228 0.00000
H71 H 0.13885 0.79340 0.88378 0.00000
H72 H 0.13684 0.81909 0.95584 0.00000
H73 H 0.08152 0.74011 0.02538 0.00000
H74 H 0.08400 0.71391 0.95303 0.00000
C75 C 0.10914 0.87860 0.02968 0.00000
C76 C 0.12663 0.87620 0.06664 0.00000
C77 C 0.12684 0.84970 0.07267 0.00000
C78 C 0.10978 0.82521 0.04031 0.00000
C79 C 0.09065 0.82585 0.00434 0.00000
C80 C 0.09072 0.85279 0.99803 0.00000
C81 C 0.11211 0.75112 0.90986 0.00000
C82 C 0.12737 0.78215 0.91232 0.00000
C83 C 0.12655 0.79775 0.95591 0.00000
C84 C 0.11076 0.78213 0.99863 0.00000
C85 C 0.09379 0.75096 0.99725 0.00000
C86 C 0.09491 0.73527 0.95329 0.00000
H87 H 0.08683 0.77965 0.21207 0.00000
H88 H 0.14147 0.77463 0.07632 0.00000
H89 H 0.08144 0.79361 0.12830 0.00000
H90 H 0.14639 0.76013 0.15861 0.00000
C91 C 0.72782 0.14256 0.19446 0.00000
C92 C 0.71004 0.12655 0.15246 0.00000
C93 C 0.72199 0.12945 0.10311 0.00000
C94 C 0.75250 0.14821 0.09554 0.00000
C95 C 0.77113 0.16596 0.13574 0.00000
C96 C 0.75900 0.16274 0.18571 0.00000
N97 N 0.76552 0.15090 0.04506 0.00000
H98 H 0.83157 0.12457 0.08750 0.00000
H99 H 0.78696 0.12353 0.09797 0.00000
H100 H 0.81096 0.18452 0.98600 0.00000
H101 H 0.85588 0.18517 0.97427 0.00000
H102 H 0.73079 0.12174 0.88251 0.00000
H103 H 0.75897 0.12455 0.95470 0.00000
H104 H 0.73750 0.17848 0.02712 0.00000
H105 H 0.70830 0.17518 0.95462 0.00000
C106 C 0.84865 0.15451 0.03004 0.00000
C107 C 0.82768 0.13664 0.06608 0.00000
C108 C 0.80060 0.13564 0.07208 0.00000
C109 C 0.79385 0.15227 0.04060 0.00000
C110 C 0.81475 0.17175 0.00565 0.00000
C111 C 0.84199 0.17248 0.99990 0.00000
C112 C 0.71625 0.14768 0.90998 0.00000
C113 C 0.73155 0.13309 0.91165 0.00000
C114 C 0.74823 0.13439 0.95529 0.00000
C115 C 0.74913 0.14999 0.99884 0.00000
C116 C 0.73550 0.16632 0.99834 0.00000
C117 C 0.71840 0.16471 0.95431 0.00000
H118 H 0.77197 0.17426 0.21355 0.00000
H119 H 0.70899 0.11851 0.07490 0.00000
H120 H 0.79183 0.18016 0.13008 0.00000
H121 H 0.68907 0.11307 0.15692 0.00000
Co122 Co 0.61042 0.64872 0.53744 0.00000
Co123 Co 0.55801 0.58872 0.53504 0.00000
C124 C 0.58106 0.61969 0.43638 0.00000
C125 C 0.54931 0.63962 0.54398 0.00000
O126 O 0.60765 0.64185 0.61547 0.00000
C127 C 0.61912 0.59782 0.52849 0.00000
O128 O 0.56538 0.59365 0.61345 0.00000
O129 O 0.57815 0.65942 0.54341 0.00000
O130 O 0.53594 0.61117 0.54118 0.00000
O131 O 0.56078 0.59559 0.45702 0.00000
O132 O 0.60305 0.64380 0.45903 0.00000
O133 O 0.63249 0.62627 0.53129 0.00000
O134 O 0.59028 0.57802 0.52907 0.00000
C135 C 0.58737 0.61775 0.63610 0.00000
Co136 Co 0.09614 0.65516 0.54502 0.00000
Co137 Co 0.10738 0.71494 0.54650 0.00000
C138 C 0.09799 0.68430 0.64556 0.00000
C139 C 0.04434 0.66363 0.53715 0.00000
O140 O 0.10032 0.66183 0.46696 0.00000
C141 C 0.15917 0.70648 0.55438 0.00000
O142 O 0.10919 0.70986 0.46823 0.00000
O143 O 0.05225 0.64403 0.53829 0.00000
O144 O 0.06122 0.69209 0.53977 0.00000
O145 O 0.10319 0.70827 0.62457 0.00000
O146 O 0.09433 0.66024 0.62330 0.00000
O147 O 0.14229 0.67801 0.55176 0.00000
O148 O 0.15126 0.72607 0.55324 0.00000
C149 C 0.10552 0.68580 0.44597 0.00000
Co150 Co 0.62392 0.13828 0.54518 0.00000
Co151 Co 0.67596 0.13397 0.54647 0.00000
C152 C 0.65339 0.14092 0.64573 0.00000
C153 C 0.68527 0.19444 0.53869 0.00000
O154 O 0.62642 0.13399 0.46701 0.00000
C155 C 0.61461 0.07781 0.55296 0.00000
O156 O 0.66840 0.13070 0.46813 0.00000
O157 O 0.65648 0.18352 0.53959 0.00000
O158 O 0.69840 0.18013 0.54092 0.00000
O159 O 0.67346 0.13827 0.62464 0.00000
O160 O 0.63148 0.14155 0.62352 0.00000
O161 O 0.60148 0.09212 0.55074 0.00000
O162 O 0.64340 0.08873 0.55206 0.00000
C163 C 0.64649 0.13133 0.44593 0.00000
H164 H 0.67831 0.54935 0.40036 0.00000
H165 H 0.66261 0.56408 0.43033 0.00000
H166 H 0.62697 0.50154 0.41460 0.00000
H167 H 0.61785 0.52082 0.44908 0.00000
H168 H 0.62374 0.47368 0.48738 0.00000
H169 H 0.59231 0.46879 0.47115 0.00000
H170 H 0.59412 0.46750 0.55728 0.00000
H171 H 0.59559 0.49786 0.54289 0.00000
H172 H 0.62267 0.48639 0.64379 0.00000
H173 H 0.61185 0.50935 0.63283 0.00000
H174 H 0.67216 0.52430 0.64661 0.00000
H175 H 0.65569 0.53598 0.68156 0.00000
N176 N 0.67223 0.55866 0.61875 0.00000
N177 N 0.70242 0.58779 0.51592 0.00000
N178 N 0.66080 0.53026 0.46689 0.00000
N179 N 0.63336 0.50404 0.56776 0.00000
C180 C 0.70676 0.51696 0.53071 0.00000
O181 O 0.63556 0.58527 0.59524 0.00000
O182 O 0.63934 0.56076 0.52501 0.00000
Ni183 Ni 0.66903 0.54673 0.54179 0.00000
O184 O 0.69159 0.49917 0.49535 0.00000
O185 O 0.70186 0.53541 0.55580 0.00000
C186 C 0.62929 0.57626 0.54842 0.00000
C187 C 0.70165 0.58097 0.63980 0.00000
C188 C 0.71994 0.60728 0.60528 0.00000
C189 C 0.72802 0.60497 0.55182 0.00000
C190 C 0.70636 0.57920 0.46108 0.00000
C191 C 0.67511 0.55539 0.43455 0.00000
C192 C 0.62795 0.50944 0.44974 0.00000
C193 C 0.61215 0.48353 0.48688 0.00000
C194 C 0.60663 0.48747 0.54129 0.00000
C195 C 0.62798 0.50541 0.62690 0.00000
C196 C 0.65813 0.53141 0.64569 0.00000
H197 H 0.69908 0.58856 0.67299 0.00000
H198 H 0.71294 0.57117 0.64657 0.00000
H199 H 0.73915 0.62085 0.62382 0.00000
H200 H 0.70935 0.61811 0.60364 0.00000
H201 H 0.73987 0.59543 0.55224 0.00000
H202 H 0.74111 0.62560 0.53841 0.00000
H203 H 0.71675 0.59750 0.44010 0.00000
H204 H 0.71910 0.57064 0.46262 0.00000
H205 H 0.93653 0.57036 0.67501 0.00000
H206 H 0.96607 0.59716 0.64811 0.00000
H207 H 0.95452 0.53910 0.63192 0.00000
H208 H 0.98018 0.56888 0.60391 0.00000
H209 H 0.93212 0.51772 0.55135 0.00000
H210 H 0.96465 0.52316 0.55777 0.00000
H211 H 0.95856 0.53142 0.47537 0.00000
H212 H 0.98310 0.56345 0.50061 0.00000
H213 H 0.93881 0.55156 0.40622 0.00000
H214 H 0.97110 0.58070 0.42262 0.00000
H215 H 0.91398 0.57445 0.42894 0.00000
H216 H 0.94164 0.59871 0.39599 0.00000
N217 N 0.94401 0.60996 0.46821 0.00000
N218 N 0.93750 0.61801 0.58423 0.00000
N219 N 0.93820 0.56404 0.60032 0.00000
N220 N 0.94408 0.55790 0.48787 0.00000
C221 C 0.87192 0.53779 0.54509 0.00000
O222 O 0.00953 0.65235 0.49194 0.00000
O223 O 0.98678 0.61450 0.55097 0.00000
Ni224 Ni 0.94018 0.58841 0.53666 0.00000
O225 O 0.87547 0.51960 0.56884 0.00000
O226 O 0.89236 0.56376 0.52674 0.00000
C227 C 0.01068 0.63904 0.53194 0.00000
C228 C 0.92839 0.62566 0.46311 0.00000
C229 C 0.93086 0.64373 0.51002 0.00000
C230 C 0.92142 0.63128 0.56216 0.00000
C231 C 0.92755 0.59999 0.63442 0.00000
C232 C 0.94417 0.58267 0.64379 0.00000
C233 C 0.95890 0.55192 0.60144 0.00000
C234 C 0.95381 0.53358 0.55275 0.00000
C235 C 0.96165 0.54694 0.50090 0.00000
C236 C 0.94942 0.56886 0.43058 0.00000
C237 C 0.93618 0.58818 0.42917 0.00000
H238 H 0.93666 0.63935 0.43356 0.00000
H239 H 0.90687 0.61073 0.45565 0.00000
H240 H 0.91966 0.65343 0.50173 0.00000
H241 H 0.95228 0.66015 0.51310 0.00000
H242 H 0.89969 0.61564 0.56101 0.00000
H243 H 0.92434 0.64763 0.58560 0.00000
H244 H 0.93184 0.61389 0.66361 0.00000
H245 H 0.90559 0.58523 0.63276 0.00000
H246 H 0.25892 0.71527 0.67051 0.00000
H247 H 0.22985 0.71065 0.64077 0.00000
H248 H 0.26567 0.76594 0.69272 0.00000
H249 H 0.23788 0.75754 0.65499 0.00000
H250 H 0.29805 0.80597 0.63880 0.00000
H251 H 0.27356 0.81050 0.66466 0.00000
H252 H 0.28181 0.82965 0.58534 0.00000
H253 H 0.24853 0.80001 0.58483 0.00000
H254 H 0.29228 0.82815 0.48934 0.00000
H255 H 0.25610 0.80713 0.49235 0.00000
H256 H 0.29586 0.78993 0.45629 0.00000
H257 H 0.26978 0.78911 0.42351 0.00000
N258 N 0.25602 0.75412 0.46682 0.00000
N259 N 0.24527 0.70344 0.54037 0.00000
N260 N 0.26801 0.74803 0.62246 0.00000
N261 N 0.27794 0.79545 0.54867 0.00000
C262 C 0.32898 0.76769 0.55670 0.00000
O263 O 0.19121 0.73032 0.48698 0.00000
O264 O 0.21777 0.73633 0.56145 0.00000
Ni265 Ni 0.26174 0.74859 0.54389 0.00000
O266 O 0.33268 0.77748 0.60134 0.00000
O267 O 0.30543 0.75753 0.52683 0.00000
C268 C 0.19267 0.72899 0.53584 0.00000
C269 C 0.25956 0.73569 0.42941 0.00000
C270 C 0.24507 0.70333 0.44455 0.00000
C271 C 0.25189 0.69307 0.49260 0.00000
C272 C 0.25518 0.69885 0.59360 0.00000
C273 C 0.25130 0.71763 0.63723 0.00000
C274 C 0.25988 0.76639 0.65658 0.00000
C275 C 0.27639 0.79867 0.63815 0.00000
C276 C 0.27017 0.80741 0.58781 0.00000
C277 C 0.27499 0.80741 0.49506 0.00000
C278 C 0.27496 0.78520 0.45791 0.00000
H279 H 0.25072 0.73642 0.39619 0.00000
H280 H 0.28127 0.74432 0.42433 0.00000
H281 H 0.24877 0.69319 0.41614 0.00000
H282 H 0.22316 0.69482 0.44424 0.00000
H283 H 0.27345 0.70007 0.49311 0.00000
H284 H 0.24019 0.67074 0.49223 0.00000
H285 H 0.24313 0.67725 0.60198 0.00000
H286 H 0.27653 0.70512 0.59240 0.00000
H287 H 0.57580 0.96008 0.42315 0.00000
H288 H 0.59347 0.99206 0.45290 0.00000
H289 H 0.54160 0.97873 0.39820 0.00000
H290 H 0.56078 0.00723 0.43615 0.00000
H291 H 0.49917 0.96179 0.45010 0.00000
H292 H 0.50973 0.99299 0.42383 0.00000
H293 H 0.49238 0.99361 0.50208 0.00000
H294 H 0.52805 0.01728 0.50398 0.00000
H295 H 0.48623 0.98080 0.59815 0.00000
H296 H 0.51821 0.01242 0.59604 0.00000
H297 H 0.50719 0.95656 0.63332 0.00000
H298 H 0.52092 0.98702 0.66592 0.00000
N299 N 0.55028 0.98468 0.62449 0.00000
N300 N 0.58814 0.97041 0.55373 0.00000
N301 N 0.55019 0.96677 0.46940 0.00000
N302 N 0.51476 0.98029 0.54058 0.00000
C303 C 0.50496 0.90541 0.53447 0.00000
O304 O 0.59934 0.04855 0.60518 0.00000
O305 O 0.58285 0.02012 0.53064 0.00000
Ni306 Ni 0.55189 0.97475 0.54783 0.00000
O307 O 0.49774 0.90604 0.48936 0.00000
O308 O 0.52311 0.92795 0.56471 0.00000
C309 C 0.60017 0.04597 0.55644 0.00000
C310 C 0.55908 0.97092 0.66290 0.00000
C311 C 0.58676 0.97093 0.64946 0.00000
C312 C 0.59021 0.95730 0.60208 0.00000
C313 C 0.58658 0.95611 0.50087 0.00000
C314 C 0.57784 0.97043 0.45621 0.00000
C315 C 0.54379 0.98593 0.43424 0.00000
C316 C 0.51504 0.98351 0.45099 0.00000
C317 C 0.51217 0.99563 0.50076 0.00000
C318 C 0.50813 0.99026 0.59346 0.00000
C319 C 0.52114 0.97873 0.63181 0.00000
H320 H 0.56276 0.98185 0.69599 0.00000
H321 H 0.54227 0.94986 0.66766 0.00000
H322 H 0.59056 0.96131 0.67844 0.00000
H323 H 0.60352 0.99230 0.65008 0.00000
H324 H 0.57458 0.93554 0.60134 0.00000
H325 H 0.61005 0.95935 0.60359 0.00000
H326 H 0.60628 0.95893 0.49360 0.00000
H327 H 0.57147 0.93421 0.50188 0.00000
H328 H 0.49331 0.69188 0.67209 0.00000
H329 H 0.51267 0.68069 0.64368 0.00000
H330 H 0.45032 0.64491 0.62698 0.00000
H331 H 0.47462 0.64073 0.59782 0.00000
H332 H 0.43439 0.65324 0.54756 0.00000
H333 H 0.42801 0.62023 0.55175 0.00000
H334 H 0.43986 0.63487 0.47000 0.00000
H335 H 0.46719 0.63350 0.49421 0.00000
H336 H 0.47069 0.67526 0.40277 0.00000
H337 H 0.49168 0.66255 0.41750 0.00000
H338 H 0.50669 0.72317 0.42780 0.00000
H339 H 0.52386 0.71205 0.39342 0.00000
N340 N 0.53591 0.71833 0.46571 0.00000
N341 N 0.54775 0.73183 0.58237 0.00000
N342 N 0.48536 0.68513 0.59715 0.00000
N343 N 0.47597 0.67396 0.48416 0.00000
C344 C 0.48089 0.73983 0.54612 0.00000
O345 O 0.55924 0.67843 0.48569 0.00000
O346 O 0.52453 0.67217 0.54546 0.00000
Ni347 Ni 0.51262 0.70398 0.53393 0.00000
O348 O 0.45858 0.72012 0.56918 0.00000
O349 O 0.50283 0.73838 0.52690 0.00000
C350 C 0.54348 0.66551 0.52528 0.00000
C351 C 0.56005 0.74971 0.46211 0.00000
C352 C 0.57990 0.76184 0.50925 0.00000
C353 C 0.56926 0.76181 0.56177 0.00000
C354 C 0.53089 0.72767 0.63285 0.00000
C355 C 0.50450 0.69372 0.64061 0.00000
C356 C 0.46336 0.65094 0.59650 0.00000
C357 C 0.44422 0.64163 0.54776 0.00000
C358 C 0.45653 0.64427 0.49566 0.00000
C359 C 0.48649 0.67750 0.42676 0.00000
C360 C 0.51387 0.70918 0.42675 0.00000
H361 H 0.57258 0.75199 0.43229 0.00000
H362 H 0.55123 0.76196 0.45586 0.00000
H363 H 0.59542 0.78307 0.50200 0.00000
H364 H 0.59048 0.75101 0.51116 0.00000
H365 H 0.55970 0.77365 0.56183 0.00000
H366 H 0.58695 0.77213 0.58537 0.00000
H367 H 0.54523 0.73429 0.66204 0.00000
H368 H 0.52244 0.74053 0.63244 0.00000
H369 H 0.69978 0.30048 0.67817 0.00000
H370 H 0.69770 0.27193 0.65068 0.00000
H371 H 0.64635 0.27496 0.64156 0.00000
H372 H 0.65125 0.25099 0.61212 0.00000
H373 H 0.64173 0.29309 0.56183 0.00000
H374 H 0.61552 0.25917 0.57094 0.00000
H375 H 0.62626 0.26424 0.48690 0.00000
H376 H 0.63734 0.24359 0.51015 0.00000
H377 H 0.66393 0.28623 0.41293 0.00000
H378 H 0.66378 0.25651 0.42859 0.00000
H379 H 0.71419 0.31714 0.42968 0.00000
H380 H 0.71097 0.29003 0.39631 0.00000
N381 N 0.72425 0.29160 0.46701 0.00000
N382 N 0.74516 0.30368 0.58093 0.00000
N383 N 0.68761 0.29523 0.60474 0.00000
N384 N 0.66957 0.28425 0.49405 0.00000
C385 C 0.72269 0.36063 0.54629 0.00000
O386 O 0.70560 0.22844 0.49166 0.00000
O387 O 0.69074 0.24908 0.55350 0.00000
Ni388 Ni 0.70848 0.29471 0.53797 0.00000
O389 O 0.70092 0.35483 0.57295 0.00000
O390 O 0.72919 0.34201 0.52647 0.00000
C391 C 0.69224 0.22650 0.53359 0.00000
C392 C 0.75629 0.31060 0.45802 0.00000
C393 C 0.77550 0.31226 0.50251 0.00000
C394 C 0.77420 0.32224 0.55530 0.00000
C395 C 0.73832 0.31330 0.63250 0.00000
C396 C 0.70377 0.29311 0.64609 0.00000
C397 C 0.65415 0.27119 0.60980 0.00000
C398 C 0.63718 0.27225 0.56328 0.00000
C399 C 0.64104 0.26413 0.51049 0.00000
C400 C 0.67309 0.27827 0.43591 0.00000
C401 C 0.70681 0.29539 0.43033 0.00000
H402 H 0.76121 0.30282 0.42748 0.00000
H403 H 0.76136 0.33120 0.45041 0.00000
H404 H 0.79658 0.32550 0.49166 0.00000
H405 H 0.77191 0.29185 0.50553 0.00000
H406 H 0.77904 0.34317 0.55405 0.00000
H407 H 0.78994 0.32238 0.57666 0.00000
H408 H 0.75037 0.31177 0.66010 0.00000
H409 H 0.74430 0.33459 0.63060 0.00000
C410 C 0.12048 0.09462 0.03680 0.00000
C411 C 0.11398 0.06795 0.02384 0.00000
C412 C 0.13367 0.05736 0.03049 0.00000
C413 C 0.16230 0.07788 0.05579 0.00000
C414 C 0.17073 0.10777 0.06872 0.00000
C415 C 0.14987 0.11584 0.05887 0.00000
C416 C 0.12461 0.02596 0.02111 0.00000
C417 C 0.10786 0.96987 0.00639 0.00000
C418 C 0.10616 0.89702 0.02414 0.00000
C419 C 0.11513 0.92701 0.02691 0.00000
C420 C 0.09800 0.93733 0.00153 0.00000
C421 C 0.07326 0.91750 0.97210 0.00000
C422 C 0.06321 0.88594 0.96619 0.00000
C423 C 0.08127 0.87664 0.99242 0.00000
N424 N 0.09628 0.00540 0.00480 0.00000
N425 N 0.08630 0.97566 0.99660 0.00000
N426 N 0.13749 0.99076 0.02053 0.00000
N427 N 0.14543 0.01867 0.02649 0.00000
H428 H 0.09441 0.05423 0.00850 0.00000
H429 H 0.17579 0.07118 0.06378 0.00000
H430 H 0.19027 0.12205 0.08386 0.00000
H431 H 0.15520 0.13614 0.06696 0.00000
H432 H 0.13321 0.94125 0.04623 0.00000
H433 H 0.06208 0.92479 0.95475 0.00000
H434 H 0.04554 0.87191 0.94583 0.00000
H435 H 0.07627 0.85611 0.98807 0.00000
C436 C 0.04912 0.13770 0.04682 0.00000
C437 C 0.02666 0.13884 0.02950 0.00000
C438 C 0.99843 0.12610 0.05429 0.00000
C439 C 0.99575 0.11223 0.10345 0.00000
C440 C 0.01949 0.10948 0.12272 0.00000
C441 C 0.04576 0.12206 0.09417 0.00000
C442 C 0.97452 0.13067 0.03719 0.00000
C443 C 0.93275 0.14001 0.00771 0.00000
C444 C 0.86626 0.14976 0.01884 0.00000
C445 C 0.88757 0.14290 0.03056 0.00000
C446 C 0.90938 0.14688 0.99338 0.00000
C447 C 0.90815 0.15618 0.94484 0.00000
C448 C 0.88572 0.16279 0.92951 0.00000
C449 C 0.86417 0.15836 0.96831 0.00000
N450 N 0.97863 0.14755 0.99551 0.00000
N451 N 0.95747 0.15322 0.97846 0.00000
N452 N 0.92727 0.12132 0.04896 0.00000
N453 N 0.94818 0.11649 0.06216 0.00000
H454 H 0.02918 0.14901 0.99747 0.00000
H455 H 0.97762 0.10473 0.12318 0.00000
H456 H 0.01751 0.09924 0.15458 0.00000
H457 H 0.06213 0.12025 0.10631 0.00000
H458 H 0.88779 0.13532 0.06428 0.00000
H459 H 0.92278 0.15848 0.91996 0.00000
H460 H 0.88510 0.16967 0.89537 0.00000
H461 H 0.84800 0.16128 0.95947 0.00000
C462 C 0.16272 0.19783 0.01511 0.00000
C463 C 0.18994 0.21819 0.02909 0.00000
C464 C 0.21178 0.24080 0.99632 0.00000
C465 C 0.20181 0.24138 0.94457 0.00000
C466 C 0.17246 0.21865 0.92720 0.00000
C467 C 0.15335 0.19710 0.96245 0.00000
C468 C 0.24137 0.26581 0.01442 0.00000
C469 C 0.29332 0.31081 0.04742 0.00000
C470 C 0.36375 0.39006 0.05269 0.00000
C471 C 0.33735 0.36451 0.03562 0.00000
C472 C 0.32239 0.33793 0.06638 0.00000
C473 C 0.33522 0.33736 0.11213 0.00000
C474 C 0.36341 0.36306 0.13146 0.00000
C475 C 0.37767 0.38931 0.09898 0.00000
N476 N 0.24918 0.26807 0.06459 0.00000
N477 N 0.27614 0.29127 0.08398 0.00000
N478 N 0.28656 0.30821 0.99532 0.00000
N479 N 0.26082 0.28522 0.97971 0.00000
H480 H 0.19591 0.21805 0.06421 0.00000
H481 H 0.21529 0.25732 0.92167 0.00000
H482 H 0.16593 0.21814 0.89211 0.00000
H483 H 0.13335 0.18127 0.95139 0.00000
H484 H 0.32882 0.36455 0.00247 0.00000
H485 H 0.32507 0.31920 0.13227 0.00000
H486 H 0.37226 0.36271 0.16405 0.00000
H487 H 0.39712 0.40664 0.10908 0.00000
C488 C 0.53745 0.56006 0.22832 0.00000
H489 H 0.54489 0.54693 0.21893 0.00000
H490 H 0.54866 0.57859 0.20790 0.00000
C491 C 0.53968 0.59450 0.29805 0.00000
C492 C 0.54704 0.60260 0.35743 0.00000
C493 C 0.57669 0.57747 0.29590 0.00000
H494 H 0.59434 0.62993 0.34994 0.00000
H495 H 0.55302 0.61234 0.27720 0.00000
H496 H 0.51860 0.58810 0.29047 0.00000
C497 C 0.58366 0.58477 0.35568 0.00000
H498 H 0.57920 0.56077 0.28587 0.00000
N499 N 0.54448 0.56863 0.28485 0.00000
H500 H 0.59079 0.59539 0.27583 0.00000
H501 H 0.53290 0.58499 0.37799 0.00000
H502 H 0.54451 0.61940 0.36649 0.00000
H503 H 0.60431 0.59013 0.36381 0.00000
H504 H 0.56948 0.56679 0.37577 0.00000
C505 C 0.57998 0.61191 0.37048 0.00000
C506 C 0.09849 0.73091 0.85358 0.00000
H507 H 0.09260 0.71627 0.88160 0.00000
H508 H 0.08063 0.73157 0.84406 0.00000
C509 C 0.10979 0.73787 0.75946 0.00000
C510 C 0.11920 0.72544 0.71232 0.00000
C511 C 0.08388 0.68607 0.79987 0.00000
H512 H 0.07549 0.68787 0.69556 0.00000
H513 H 0.09030 0.73575 0.75204 0.00000
H514 H 0.12511 0.75948 0.76555 0.00000
C515 C 0.09386 0.67357 0.75349 0.00000
H516 H 0.08229 0.67513 0.83160 0.00000
N517 N 0.10728 0.71955 0.80746 0.00000
H518 H 0.06401 0.68300 0.79214 0.00000
H519 H 0.13918 0.72865 0.71929 0.00000
H520 H 0.12051 0.73660 0.68107 0.00000
H521 H 0.07921 0.65177 0.74840 0.00000
H522 H 0.11381 0.67668 0.76128 0.00000
C523 C 0.09571 0.69110 0.70305 0.00000
C524 C 0.70347 0.15531 0.23956 0.00000
H525 H 0.71478 0.17687 0.23043 0.00000
H526 H 0.68436 0.14515 0.21962 0.00000
C527 C 0.67281 0.11958 0.30941 0.00000
C528 C 0.66607 0.11791 0.36904 0.00000
C529 C 0.68494 0.17339 0.30864 0.00000
H530 H 0.63534 0.13207 0.36344 0.00000
H531 H 0.65411 0.11219 0.28912 0.00000
H532 H 0.68077 0.10678 0.30100 0.00000
C533 C 0.67901 0.17225 0.36867 0.00000
H534 H 0.70010 0.19427 0.29868 0.00000
N535 N 0.69625 0.15279 0.29634 0.00000
H536 H 0.66612 0.16664 0.28916 0.00000
H537 H 0.68462 0.12429 0.38902 0.00000
H538 H 0.65080 0.09690 0.37804 0.00000
H539 H 0.67208 0.18582 0.37760 0.00000
H540 H 0.69790 0.17900 0.38816 0.00000
C541 C 0.65431 0.13870 0.38338 0.00000
C542 C 0.70493 0.15563 0.85436 0.00000
H543 H 0.69347 0.15744 0.88253 0.00000
H544 H 0.72158 0.17621 0.84594 0.00000
C545 C 0.70298 0.14527 0.75965 0.00000
C546 C 0.68059 0.13057 0.71177 0.00000
C547 C 0.66714 0.15762 0.80092 0.00000
H548 H 0.67688 0.16802 0.69715 0.00000
H549 H 0.71793 0.16679 0.75340 0.00000
H550 H 0.71385 0.13492 0.76511 0.00000
C551 C 0.64417 0.14225 0.75376 0.00000
H552 H 0.65607 0.15575 0.83259 0.00000
N553 N 0.68431 0.14198 0.80755 0.00000
H554 H 0.68136 0.17927 0.79436 0.00000
H555 H 0.66643 0.10885 0.71756 0.00000
H556 H 0.69216 0.13282 0.68059 0.00000
H557 H 0.63247 0.15177 0.74926 0.00000
H558 H 0.62993 0.12053 0.76037 0.00000
C559 C 0.66253 0.14603 0.70346 0.00000
C560 C 0.12387 0.74231 0.24246 0.00000
H561 H 0.13045 0.73369 0.21568 0.00000
H562 H 0.14200 0.76087 0.25603 0.00000
C563 C 0.10582 0.73524 0.33321 0.00000
C564 C 0.09101 0.71105 0.37736 0.00000
C565 C 0.13009 0.70810 0.29778 0.00000
H566 H 0.13138 0.71527 0.40304 0.00000
H567 H 0.12550 0.75259 0.34500 0.00000
H568 H 0.09265 0.74268 0.32423 0.00000
C569 C 0.11474 0.68329 0.34104 0.00000
H570 H 0.13286 0.69914 0.26643 0.00000
N571 N 0.10991 0.71992 0.28577 0.00000
H572 H 0.15005 0.72483 0.30994 0.00000
H573 H 0.07090 0.69434 0.36593 0.00000
H574 H 0.08859 0.72053 0.40831 0.00000
H575 H 0.12725 0.67499 0.34887 0.00000
H576 H 0.09472 0.66653 0.32881 0.00000
C577 C 0.11106 0.69835 0.39103 0.00000
C578 C 0.53896 0.56874 0.84540 0.00000
H579 H 0.54616 0.58395 0.87352 0.00000
H580 H 0.55062 0.55902 0.84754 0.00000
C581 C 0.54113 0.56305 0.75001 0.00000
C582 C 0.54799 0.58066 0.69758 0.00000
C583 C 0.57745 0.61247 0.79688 0.00000
H584 H 0.59540 0.60295 0.70328 0.00000
H585 H 0.55490 0.55586 0.75476 0.00000
H586 H 0.52023 0.54536 0.74945 0.00000
C587 C 0.58389 0.63046 0.74480 0.00000
H588 H 0.57971 0.62553 0.82640 0.00000
N589 N 0.54551 0.58483 0.79447 0.00000
H590 H 0.59195 0.60618 0.80143 0.00000
H591 H 0.53345 0.58681 0.69225 0.00000
H592 H 0.54572 0.56722 0.66871 0.00000
H593 H 0.60435 0.64873 0.74587 0.00000
H594 H 0.56931 0.63673 0.74027 0.00000
C595 C 0.58063 0.60921 0.69832 0.00000
loop_
_geom_bond_atom_site_label_1
_geom_bond_atom_site_label_2
_geom_bond_distance
_geom_bond_site_symmetry_2
_ccdc_geom_bond_type
C0 C1 1.587 . S
C0 C5 1.482 . S
C0 H6 0.981 1_554 S
C1 C2 1.471 . S
C1 H7 0.969 . S
C1 H8 0.971 . S
C2 C3 1.595 . S
C2 H9 0.981 1_554 S
C3 C4 1.462 . S
C3 H10 0.971 . S
C3 H11 0.969 . S
C4 C5 1.617 . S
C4 H12 0.982 1_554 S
C5 H13 0.970 . S
C5 H14 0.969 . S
C15 N19 1.142 . T
Ag16 N19 2.428 . S
Ag16 N20 2.206 . S
Ag16 N21 2.249 . S
C17 N20 1.144 . T
C18 N21 1.147 . T
C22 N26 1.142 . T
Ag23 N26 2.428 . S
Ag23 N27 2.206 . S
Ag23 N28 2.249 . S
C24 N27 1.144 . T
C25 N28 1.147 . T
C29 C30 1.353 . A
C29 C34 1.393 . A
C30 C31 1.382 . A
C30 H59 0.930 . S
C31 C32 1.353 . A
C31 H57 0.931 1_556 S
C32 C33 1.357 . A
C32 N35 1.432 1_556 S
C33 C34 1.398 . A
C33 H58 0.930 . S
C34 H56 0.930 . S
N35 C47 1.432 . S
N35 C53 1.432 . S
H36 C45 0.930 1_556 S
H37 C46 0.931 1_556 S
H38 C48 0.930 . S
H39 C49 0.930 . S
H40 C51 0.930 . S
H41 C52 0.931 . S
H42 C54 0.930 . S
H43 C55 0.930 . S
C44 C45 1.353 . A
C44 C49 1.393 . A
C45 C46 1.382 . A
C46 C47 1.353 . A
C47 C48 1.357 . A
C48 C49 1.398 . A
C50 C51 1.353 . A
C50 C55 1.393 . A
C51 C52 1.382 . A
C52 C53 1.353 . A
C53 C54 1.357 . A
C54 C55 1.398 . A
C60 C61 1.353 . A
C60 C65 1.393 . A
C61 C62 1.382 . A
C61 H90 0.930 . S
C62 C63 1.353 . A
C62 H88 0.931 . S
C63 C64 1.357 . A
C63 N66 1.432 . S
C64 C65 1.398 . A
C64 H89 0.930 . S
C65 H87 0.930 . S
N66 C78 1.432 . S
N66 C84 1.432 1_554 S
H67 C76 0.930 . S
H68 C77 0.931 . S
H69 C79 0.930 1_556 S
H70 C80 0.930 . S
H71 C82 0.930 . S
H72 C83 0.931 . S
H73 C85 0.930 1_554 S
H74 C86 0.930 . S
C75 C76 1.353 . A
C75 C80 1.393 1_554 A
C76 C77 1.382 . A
C77 C78 1.353 . A
C78 C79 1.357 . A
C79 C80 1.398 1_554 A
C81 C82 1.353 . A
C81 C86 1.393 . A
C82 C83 1.382 . A
C83 C84 1.353 . A
C84 C85 1.357 . A
C85 C86 1.398 . A
C91 C92 1.353 . A
C91 C96 1.393 . A
C92 C93 1.382 . A
C92 H121 0.930 . S
C93 C94 1.353 . A
C93 H119 0.931 . S
C94 C95 1.357 . A
C94 N97 1.432 . S
C95 C96 1.398 . A
C95 H120 0.930 . S
C96 H118 0.930 . S
N97 C109 1.432 . S
N97 C115 1.432 1_554 S
H98 C107 0.930 . S
H99 C108 0.931 . S
H100 C110 0.930 1_556 S
H101 C111 0.940 . S
H102 C113 0.930 . S
H103 C114 0.931 . S
H104 C116 0.930 1_554 S
H105 C117 0.930 . S
C106 C107 1.353 . A
C106 C111 1.385 1_554 A
C107 C108 1.382 . A
C108 C109 1.353 . A
C109 C110 1.357 . A
C110 C111 1.396 1_554 A
C112 C113 1.353 . A
C112 C117 1.393 . A
C113 C114 1.382 . A
C114 C115 1.353 . A
C115 C116 1.357 . A
C116 C117 1.398 . A
Co122 Co123 2.813 . S
Co122 O126 2.020 . S
Co122 O129 2.023 . S
Co122 O132 2.023 . S
Co122 O133 2.020 . S
Co123 O128 2.023 . S
Co123 O130 2.020 . S
Co123 O131 2.020 . S
Co123 O134 2.023 . S
C124 O131 1.243 . A
C124 O132 1.277 . A
C125 O129 1.277 . A
C125 O130 1.243 . A
O126 C135 1.243 . A
C127 O133 1.243 . A
C127 O134 1.277 . A
O128 C135 1.277 . A
Co136 Co137 2.813 . S
Co136 O140 2.020 . S
Co136 O143 2.023 . S
Co136 O146 2.023 . S
Co136 O147 2.020 . S
Co137 O142 2.023 . S
Co137 O144 2.020 . S
Co137 O145 2.020 . S
Co137 O148 2.023 . S
C138 O145 1.243 . A
C138 O146 1.277 . A
C139 O143 1.277 . A
C139 O144 1.243 . A
O140 C149 1.243 . A
C141 O147 1.243 . A
C141 O148 1.277 . A
O142 C149 1.277 . A
Co150 Co151 2.813 . S
Co150 O154 2.020 . S
Co150 O157 2.023 . S
Co150 O160 2.023 . S
Co150 O161 2.020 . S
Co151 O156 2.023 . S
Co151 O158 2.020 . S
Co151 O159 2.020 . S
Co151 O162 2.023 . S
C152 O159 1.243 . A
C152 O160 1.277 . A
C153 O157 1.277 . A
C153 O158 1.243 . A
O154 C163 1.243 . A
C155 O161 1.243 . A
C155 O162 1.277 . A
O156 C163 1.277 . A
H164 C191 0.969 . S
H165 C191 0.969 . S
H166 C192 0.972 . S
H167 C192 0.972 . S
H168 C193 0.970 . S
H169 C193 0.971 . S
H170 C194 0.971 . S
H171 C194 0.970 . S
H172 C195 0.971 . S
H173 C195 0.970 . S
H174 C196 0.972 . S
H175 C196 0.970 . S
N176 Ni183 2.033 . S
N176 C187 1.422 . S
N176 C196 1.380 . S
N177 Ni183 2.005 . S
N177 C189 1.443 . S
N177 C190 1.513 . S
N178 Ni183 2.033 . S
N178 C191 1.382 . S
N178 C192 1.500 . S
N179 Ni183 2.092 . S
N179 C194 1.343 . S
N179 C195 1.546 . S
C180 O184 1.214 . D
C180 O185 1.277 . S
O181 C186 1.254 . D
O182 Ni183 2.059 . S
O182 C186 1.307 . S
Ni183 O185 2.097 . S
C187 C188 1.473 . S
C187 H197 0.970 . S
C187 H198 0.970 . S
C188 C189 1.454 . S
C188 H199 0.970 . S
C188 H200 0.970 . S
C189 H201 0.969 . S
C189 H202 0.972 . S
C190 C191 1.554 . S
C190 H203 0.968 . S
C190 H204 0.970 . S
C192 C193 1.489 . S
C193 C194 1.455 . S
C195 C196 1.480 . S
H205 C232 0.969 . S
H206 C232 0.969 . S
H207 C233 0.972 . S
H208 C233 0.972 . S
H209 C234 0.970 . S
H210 C234 0.971 . S
H211 C235 0.971 . S
H212 C235 0.970 . S
H213 C236 0.971 . S
H214 C236 0.970 . S
H215 C237 0.972 . S
H216 C237 0.970 . S
N217 Ni224 2.033 . S
N217 C228 1.422 . S
N217 C237 1.380 . S
N218 Ni224 2.005 . S
N218 C230 1.443 . S
N218 C231 1.513 . S
N219 Ni224 2.033 . S
N219 C232 1.382 . S
N219 C233 1.500 . S
N220 Ni224 2.092 . S
N220 C235 1.343 . S
N220 C236 1.546 . S
C221 O225 1.214 . D
C221 O226 1.277 . S
O222 C227 1.254 . D
O223 Ni224 2.059 . S
O223 C227 1.307 1_655 S
Ni224 O226 2.097 . S
C228 C229 1.473 . S
C228 H238 0.970 . S
C228 H239 0.970 . S
C229 C230 1.454 . S
C229 H240 0.970 . S
C229 H241 0.970 . S
C230 H242 0.969 . S
C230 H243 0.972 . S
C231 C232 1.554 . S
C231 H244 0.968 . S
C231 H245 0.970 . S
C233 C234 1.489 . S
C234 C235 1.455 . S
C236 C237 1.480 . S
H246 C273 0.969 . S
H247 C273 0.969 . S
H248 C274 0.972 . S
H249 C274 0.972 . S
H250 C275 0.970 . S
H251 C275 0.971 . S
H252 C276 0.971 . S
H253 C276 0.970 . S
H254 C277 0.971 . S
H255 C277 0.970 . S
H256 C278 0.972 . S
H257 C278 0.970 . S
N258 Ni265 2.033 . S
N258 C269 1.422 . S
N258 C278 1.380 . S
N259 Ni265 2.005 . S
N259 C271 1.443 . S
N259 C272 1.513 . S
N260 Ni265 2.033 . S
N260 C273 1.382 . S
N260 C274 1.500 . S
N261 Ni265 2.092 . S
N261 C276 1.343 . S
N261 C277 1.546 . S
C262 O266 1.214 . D
C262 O267 1.277 . S
O263 C268 1.254 . D
O264 Ni265 2.059 . S
O264 C268 1.307 . S
Ni265 O267 2.097 . S
C269 C270 1.473 . S
C269 H279 0.970 . S
C269 H280 0.970 . S
C270 C271 1.454 . S
C270 H281 0.970 . S
C270 H282 0.970 . S
C271 H283 0.969 . S
C271 H284 0.972 . S
C272 C273 1.554 . S
C272 H285 0.968 . S
C272 H286 0.970 . S
C274 C275 1.489 . S
C275 C276 1.455 . S
C277 C278 1.480 . S
H287 C314 0.969 . S
H288 C314 0.969 . S
H289 C315 0.972 . S
H290 C315 0.972 1_545 S
H291 C316 0.970 . S
H292 C316 0.971 . S
H293 C317 0.971 . S
H294 C317 0.970 1_545 S
H295 C318 0.971 . S
H296 C318 0.970 1_545 S
H297 C319 0.972 . S
H298 C319 0.970 . S
N299 Ni306 2.033 . S
N299 C310 1.422 . S
N299 C319 1.380 . S
N300 Ni306 2.005 . S
N300 C312 1.443 . S
N300 C313 1.513 . S
N301 Ni306 2.033 . S
N301 C314 1.382 . S
N301 C315 1.500 . S
N302 Ni306 2.092 . S
N302 C317 1.343 . S
N302 C318 1.546 . S
C303 O307 1.214 . D
C303 O308 1.277 . S
O304 C309 1.254 . D
O305 Ni306 2.059 1_545 S
O305 C309 1.307 . S
Ni306 O308 2.097 . S
C310 C311 1.473 . S
C310 H320 0.970 . S
C310 H321 0.970 . S
C311 C312 1.454 . S
C311 H322 0.970 . S
C311 H323 0.970 . S
C312 H324 0.969 . S
C312 H325 0.972 . S
C313 C314 1.554 . S
C313 H326 0.968 . S
C313 H327 0.970 . S
C315 C316 1.489 . S
C316 C317 1.455 . S
C318 C319 1.480 . S
H328 C355 0.969 . S
H329 C355 0.969 . S
H330 C356 0.972 . S
H331 C356 0.972 . S
H332 C357 0.970 . S
H333 C357 0.971 . S
H334 C358 0.971 . S
H335 C358 0.970 . S
H336 C359 0.971 . S
H337 C359 0.970 . S
H338 C360 0.972 . S
H339 C360 0.970 . S
N340 Ni347 2.033 . S
N340 C351 1.422 . S
N340 C360 1.380 . S
N341 Ni347 2.005 . S
N341 C353 1.443 . S
N341 C354 1.513 . S
N342 Ni347 2.033 . S
N342 C355 1.382 . S
N342 C356 1.500 . S
N343 Ni347 2.092 . S
N343 C358 1.343 . S
N343 C359 1.546 . S
C344 O348 1.214 . D
C344 O349 1.277 . S
O345 C350 1.254 . D
O346 Ni347 2.059 . S
O346 C350 1.307 . S
Ni347 O349 2.097 . S
C351 C352 1.473 . S
C351 H361 0.970 . S
C351 H362 0.970 . S
C352 C353 1.454 . S
C352 H363 0.970 . S
C352 H364 0.970 . S
C353 H365 0.969 . S
C353 H366 0.972 . S
C354 C355 1.554 . S
C354 H367 0.968 . S
C354 H368 0.970 . S
C356 C357 1.489 . S
C357 C358 1.455 . S
C359 C360 1.480 . S
H369 C396 0.969 . S
H370 C396 0.969 . S
H371 C397 0.972 . S
H372 C397 0.972 . S
H373 C398 0.970 . S
H374 C398 0.971 . S
H375 C399 0.971 . S
H376 C399 0.970 . S
H377 C400 0.971 . S
H378 C400 0.970 . S
H379 C401 0.972 . S
H380 C401 0.970 . S
N381 Ni388 2.033 . S
N381 C392 1.422 . S
N381 C401 1.380 . S
N382 Ni388 2.005 . S
N382 C394 1.443 . S
N382 C395 1.513 . S
N383 Ni388 2.033 . S
N383 C396 1.382 . S
N383 C397 1.500 . S
N384 Ni388 2.092 . S
N384 C399 1.343 . S
N384 C400 1.546 . S
C385 O389 1.214 . D
C385 O390 1.277 . S
O386 C391 1.254 . D
O387 Ni388 2.059 . S
O387 C391 1.307 . S
Ni388 O390 2.097 . S
C392 C393 1.473 . S
C392 H402 0.970 . S
C392 H403 0.970 . S
C393 C394 1.454 . S
C393 H404 0.970 . S
C393 H405 0.970 . S
C394 H406 0.969 . S
C394 H407 0.972 . S
C395 C396 1.554 . S
C395 H408 0.968 . S
C395 H409 0.970 . S
C397 C398 1.489 . S
C398 C399 1.455 . S
C400 C401 1.480 . S
C410 C411 1.268 . A
C410 C415 1.419 . A
C411 C410 1.268 . A
C411 C412 1.398 . A
C411 H428 0.947 . S
C412 C413 1.421 . A
C412 C416 1.441 . S
C413 C412 1.421 . A
C413 C414 1.394 . A
C413 H429 0.951 . S
C414 C415 1.369 . A
C414 H430 0.950 . S
C415 H431 0.949 . S
C416 N424 1.325 . A
C416 N427 1.322 . A
C417 C420 1.473 . S
C417 N425 1.321 1_554 A
C417 N426 1.360 . A
C418 C419 1.356 . A
C418 C423 1.390 1_554 A
C419 C420 1.409 . A
C419 H432 0.951 . S
C420 C421 1.346 1_554 A
C421 C420 1.346 1_556 A
C421 C422 1.424 . A
C421 H433 0.950 . S
C422 C423 1.422 . A
C422 H434 0.951 . S
C423 C418 1.390 1_556 A
C423 H435 0.951 . S
N424 N425 1.344 1_544 A
N426 N427 1.275 1_565 A
C436 C437 1.268 . A
C436 C441 1.419 . A
C437 C436 1.268 . A
C437 C438 1.398 1_455 A
C437 H454 0.947 1_554 S
C438 C439 1.421 . A
C438 C442 1.441 . S
C439 C438 1.421 . A
C439 C440 1.394 1_655 A
C439 H455 0.951 . S
C440 C441 1.369 . A
C440 H456 0.950 . S
C441 H457 0.949 . S
C442 N450 1.325 1_554 A
C442 N453 1.322 . A
C443 C446 1.473 1_554 S
C443 N451 1.321 1_554 A
C443 N452 1.360 . A
C444 C445 1.356 . A
C444 C449 1.390 1_554 A
C445 C446 1.409 1_554 A
C445 H458 0.951 . S
C446 C447 1.346 . A
C447 C446 1.346 . A
C447 C448 1.424 . A
C447 H459 0.950 . S
C448 C449 1.422 . A
C448 H460 0.951 . S
C449 C444 1.390 1_556 A
C449 H461 0.951 . S
N450 N451 1.344 . A
N452 N453 1.275 . A
C462 C463 1.268 . A
C462 C467 1.419 1_554 A
C463 C462 1.268 . A
C463 C464 1.398 1_554 A
C463 H480 0.947 . S
C464 C465 1.421 . A
C464 C468 1.441 1_556 S
C465 C464 1.421 . A
C465 C466 1.394 . A
C465 H481 0.951 . S
C466 C467 1.369 . A
C466 H482 0.950 . S
C467 H483 0.949 . S
C468 N476 1.325 . A
C468 N479 1.322 1_554 A
C469 C472 1.473 . S
C469 N477 1.321 . A
C469 N478 1.360 1_554 A
C470 C471 1.356 . A
C470 C475 1.390 . A
C471 C472 1.409 . A
C471 H484 0.951 . S
C472 C473 1.346 . A
C473 C472 1.346 . A
C473 C474 1.424 . A
C473 H485 0.950 . S
C474 C475 1.422 . A
C474 H486 0.951 . S
C475 C470 1.390 . A
C475 H487 0.951 . S
N476 N477 1.344 . A
N478 N479 1.275 . A
C488 H489 0.970 . S
C488 H490 0.970 . S
C488 N499 1.490 . S
C491 C492 1.558 . S
C491 H495 0.969 . S
C491 H496 0.970 . S
C491 N499 1.518 . S
C492 H501 0.968 . S
C492 H502 0.969 . S
C492 C505 1.532 . S
C493 C497 1.561 . S
C493 H498 0.970 . S
C493 N499 1.494 . S
C493 H500 0.969 . S
H494 C505 0.982 . S
C497 H503 0.968 . S
C497 H504 0.972 . S
C497 C505 1.554 . S
C506 H507 0.970 . S
C506 H508 0.970 . S
C506 N517 1.490 . S
C509 C510 1.558 . S
C509 H513 0.969 . S
C509 H514 0.970 . S
C509 N517 1.518 . S
C510 H519 0.968 . S
C510 H520 0.969 . S
C510 C523 1.532 . S
C511 C515 1.561 . S
C511 H516 0.970 . S
C511 N517 1.494 . S
C511 H518 0.969 . S
H512 C523 0.982 . S
C515 H521 0.968 . S
C515 H522 0.972 . S
C515 C523 1.554 . S
C524 H525 0.970 . S
C524 H526 0.970 . S
C524 N535 1.490 . S
C527 C528 1.558 . S
C527 H531 0.969 . S
C527 H532 0.970 . S
C527 N535 1.518 . S
C528 H537 0.968 . S
C528 H538 0.969 . S
C528 C541 1.532 . S
C529 C533 1.561 . S
C529 H534 0.970 . S
C529 N535 1.494 . S
C529 H536 0.969 . S
H530 C541 0.982 . S
C533 H539 0.968 . S
C533 H540 0.972 . S
C533 C541 1.554 . S
C542 H543 0.970 . S
C542 H544 0.970 . S
C542 N553 1.490 . S
C545 C546 1.558 . S
C545 H549 0.969 . S
C545 H550 0.970 . S
C545 N553 1.518 . S
C546 H555 0.968 . S
C546 H556 0.969 . S
C546 C559 1.532 . S
C547 C551 1.561 . S
C547 H552 0.970 . S
C547 N553 1.494 . S
C547 H554 0.969 . S
H548 C559 0.982 . S
C551 H557 0.968 . S
C551 H558 0.972 . S
C551 C559 1.554 . S
C560 H561 0.970 . S
C560 H562 0.970 . S
C560 N571 1.490 . S
C563 C564 1.558 . S
C563 H567 0.969 . S
C563 H568 0.970 . S
C563 N571 1.518 . S
C564 H573 0.968 . S
C564 H574 0.969 . S
C564 C577 1.532 . S
C565 C569 1.561 . S
C565 H570 0.970 . S
C565 N571 1.494 . S
C565 H572 0.969 . S
H566 C577 0.982 . S
C569 H575 0.968 . S
C569 H576 0.972 . S
C569 C577 1.554 . S
C578 H579 0.970 . S
C578 H580 0.970 . S
C578 N589 1.490 . S
C581 C582 1.558 . S
C581 H585 0.969 . S
C581 H586 0.970 . S
C581 N589 1.518 . S
C582 H591 0.968 . S
C582 H592 0.969 . S
C582 C595 1.532 . S
C583 C587 1.561 . S
C583 H588 0.970 . S
C583 N589 1.494 . S
C583 H590 0.969 . S
H584 C595 0.982 . S
C587 H593 0.968 . S
C587 H594 0.972 . S
C587 C595 1.554 . S
C180 C18 1.442 . S
C186 C127 1.550 . S
C227 C139 1.509 . S
C221 C15 1.452 . S
C262 C24 1.414 . S
C268 C141 1.560 . S
C309 C155 1.396 . S
C303 C22 1.458 . S
C344 C25 1.438 . S
C350 C125 1.594 . S
C391 C153 1.498 . S
C385 C17 1.469 . S
C410 C4 1.354 . S
C418 C75 1.051 . S
C436 C0 1.605 . S
C444 C106 1.101 . S
C462 C2 1.342 . S
C470 C44 1.249 . S
C505 C124 1.720 . S
C488 C50 1.758 . S
C523 C138 1.527 . S
C506 C81 1.678 . S
C524 C91 2.059 . S
C541 C163 1.648 . S
C542 C112 1.667 . S
C559 C152 1.521 . S
C560 C60 1.968 . S
C577 C149 1.514 . S
C578 C29 2.069 . S
C595 C135 1.642 . S
