# Generated by pormake.
# Topology noc, (3,3)-cn, num edge types: 3
# Building blocks:
#     Node 0, Type 0, BuildingBlock: N429, # of connection points: 3
#     Node 1, Type 0, BuildingBlock: N429, # of connection points: 3
#     Node 2, Type 0, BuildingBlock: N429, # of connection points: 3
#     Node 3, Type 0, BuildingBlock: N429, # of connection points: 3
#     Node 4, Type 0, BuildingBlock: N429, # of connection points: 3
#     Node 5, Type 0, BuildingBlock: N429, # of connection points: 3
#     Node 6, Type 0, BuildingBlock: N429, # of connection points: 3
#     Node 7, Type 0, BuildingBlock: N429, # of connection points: 3
#     Node 8, Type 0, BuildingBlock: N429, # of connection points: 3
#     Node 9, Type 0, BuildingBlock: N429, # of connection points: 3
#     Node 10, Type 0, BuildingBlock: N429, # of connection points: 3
#     Node 11, Type 0, BuildingBlock: N429, # of connection points: 3
#     Node 12, Type 1, BuildingBlock: N484, # of connection points: 3
#     Node 13, Type 1, BuildingBlock: N484, # of connection points: 3
#     Node 14, Type 1, BuildingBlock: N484, # of connection points: 3
#     Node 15, Type 1, BuildingBlock: N484, # of connection points: 3
#     Node 16, Type 1, BuildingBlock: N484, # of connection points: 3
#     Node 17, Type 1, BuildingBlock: N484, # of connection points: 3
#     Edge 18, Type (1, 1), BuildingBlock: E74, # of connection points: 2
#     Edge 19, Type (1, 1), BuildingBlock: E74, # of connection points: 2
#     Edge 20, Type (1, 1), BuildingBlock: E74, # of connection points: 2
#     Edge 21, Type (0, 1), BuildingBlock: E168, # of connection points: 2
#     Edge 22, Type (0, 1), BuildingBlock: E168, # of connection points: 2
#     Edge 23, Type (0, 1), BuildingBlock: E168, # of connection points: 2
#     Edge 24, Type (0, 1), BuildingBlock: E168, # of connection points: 2
#     Edge 25, Type (0, 1), BuildingBlock: E168, # of connection points: 2
#     Edge 26, Type (0, 1), BuildingBlock: E168, # of connection points: 2
#     Edge 27, Type (0, 1), BuildingBlock: E168, # of connection points: 2
#     Edge 28, Type (0, 1), BuildingBlock: E168, # of connection points: 2
#     Edge 29, Type (0, 1), BuildingBlock: E168, # of connection points: 2
#     Edge 30, Type (0, 1), BuildingBlock: E168, # of connection points: 2
#     Edge 31, Type (0, 1), BuildingBlock: E168, # of connection points: 2
#     Edge 32, Type (0, 1), BuildingBlock: E168, # of connection points: 2
#     Edge 33, Type (0, 0), BuildingBlock: E192, # of connection points: 2
#     Edge 34, Type (0, 0), BuildingBlock: E192, # of connection points: 2
#     Edge 35, Type (0, 0), BuildingBlock: E192, # of connection points: 2
#     Edge 36, Type (0, 0), BuildingBlock: E192, # of connection points: 2
#     Edge 37, Type (0, 0), BuildingBlock: E192, # of connection points: 2
#     Edge 38, Type (0, 0), BuildingBlock: E192, # of connection points: 2
#     Edge 39, Type (0, 0), BuildingBlock: E192, # of connection points: 2
#     Edge 40, Type (0, 0), BuildingBlock: E192, # of connection points: 2
#     Edge 41, Type (0, 0), BuildingBlock: E192, # of connection points: 2
#     Edge 42, Type (0, 0), BuildingBlock: E192, # of connection points: 2
#     Edge 43, Type (0, 0), BuildingBlock: E192, # of connection points: 2
#     Edge 44, Type (0, 0), BuildingBlock: E192, # of connection points: 2
# Relax obj value: 0.156
# Max RMSD: 0.144
# Mean RMSD: 0.104
data_noc+N429+N484+E192+E168+E74
_symmetry_space_group_name_H-M    P1
_symmetry_Int_Tables_number       1
_symmetry_cell_setting            triclinic
loop_
_symmetry_equiv_pos_as_xyz
'x, y, z'
_cell_length_a     65.589
_cell_length_b     67.626
_cell_length_c     28.238
_cell_angle_alpha  89.902
_cell_angle_beta   89.878
_cell_angle_gamma  111.785
loop_
_atom_site_label
_atom_site_type_symbol
_atom_site_fract_x
_atom_site_fract_y
_atom_site_fract_z
_atom_type_partial_charge
C0 C 0.26970 0.40265 0.49923 0.00000
C1 C 0.26195 0.39359 0.45649 0.00000
C2 C 0.23992 0.38839 0.44383 0.00000
C3 C 0.22552 0.39196 0.47538 0.00000
C4 C 0.23320 0.40063 0.51841 0.00000
C5 C 0.25474 0.40643 0.53040 0.00000
C6 C 0.30529 0.43023 0.55642 0.00000
C7 C 0.31660 0.45100 0.54159 0.00000
C8 C 0.32219 0.46761 0.57340 0.00000
C9 C 0.31706 0.46372 0.62164 0.00000
C10 C 0.30555 0.44284 0.63639 0.00000
P11 P 0.29899 0.40956 0.51016 0.00000
C12 C 0.30009 0.42649 0.60343 0.00000
C13 C 0.29969 0.38628 0.54319 0.00000
C14 C 0.31981 0.38370 0.54387 0.00000
C15 C 0.32227 0.36699 0.56793 0.00000
C16 C 0.30492 0.35247 0.59195 0.00000
C17 C 0.28462 0.35444 0.59170 0.00000
C18 C 0.28217 0.37160 0.56593 0.00000
H19 H 0.27170 0.39076 0.43498 0.00000
H20 H 0.23494 0.38244 0.41362 0.00000
H21 H 0.22326 0.40269 0.54061 0.00000
H22 H 0.25973 0.41311 0.56004 0.00000
H23 H 0.32057 0.45384 0.50919 0.00000
H24 H 0.32956 0.48180 0.56257 0.00000
H25 H 0.30143 0.43984 0.66864 0.00000
H26 H 0.29249 0.41224 0.61379 0.00000
H27 H 0.33201 0.39362 0.52750 0.00000
H28 H 0.33612 0.36549 0.56790 0.00000
H29 H 0.27257 0.34457 0.60845 0.00000
H30 H 0.26820 0.37280 0.56453 0.00000
C31 C 0.86549 0.27505 0.14930 0.00000
C32 C 0.86198 0.25596 0.12801 0.00000
C33 C 0.84441 0.23748 0.14156 0.00000
C34 C 0.83058 0.23832 0.17785 0.00000
C35 C 0.83436 0.25733 0.19967 0.00000
C36 C 0.85093 0.27552 0.18566 0.00000
C37 C 0.88127 0.32093 0.14461 0.00000
C38 C 0.87362 0.33053 0.10909 0.00000
C39 C 0.86795 0.34781 0.11881 0.00000
C40 C 0.87042 0.35638 0.16463 0.00000
C41 C 0.87797 0.34660 0.20034 0.00000
P42 P 0.88837 0.29804 0.12656 0.00000
C43 C 0.88345 0.32917 0.18941 0.00000
C44 C 0.91097 0.29983 0.16713 0.00000
C45 C 0.93213 0.31143 0.15071 0.00000
C46 C 0.95022 0.31399 0.17832 0.00000
C47 C 0.94783 0.30520 0.22280 0.00000
C48 C 0.92704 0.29341 0.24012 0.00000
C49 C 0.90845 0.29054 0.21086 0.00000
H50 H 0.87167 0.25521 0.10359 0.00000
H51 H 0.84203 0.22443 0.12577 0.00000
H52 H 0.82520 0.25790 0.22532 0.00000
H53 H 0.85267 0.28866 0.20052 0.00000
H54 H 0.87227 0.32518 0.07768 0.00000
H55 H 0.86233 0.35397 0.09431 0.00000
H56 H 0.87930 0.35178 0.23187 0.00000
H57 H 0.88887 0.32274 0.21379 0.00000
H58 H 0.93409 0.31766 0.12002 0.00000
H59 H 0.96451 0.32194 0.16643 0.00000
H60 H 0.92522 0.28739 0.27094 0.00000
H61 H 0.89416 0.28204 0.22190 0.00000
C62 C 0.86431 0.61550 0.23074 0.00000
C63 C 0.86244 0.61922 0.27776 0.00000
C64 C 0.84597 0.62598 0.29444 0.00000
C65 C 0.83157 0.62948 0.26286 0.00000
C66 C 0.83373 0.62616 0.21580 0.00000
C67 C 0.84920 0.61887 0.19944 0.00000
C68 C 0.87648 0.59258 0.15673 0.00000
C69 C 0.86785 0.57051 0.15735 0.00000
C70 C 0.86046 0.55915 0.11624 0.00000
C71 C 0.86213 0.56973 0.07277 0.00000
C72 C 0.87068 0.59191 0.07229 0.00000
P73 P 0.88586 0.60575 0.21424 0.00000
C74 C 0.87788 0.60289 0.11435 0.00000
C75 C 0.90885 0.63027 0.19703 0.00000
C76 C 0.92962 0.62909 0.19678 0.00000
C77 C 0.94794 0.64641 0.18397 0.00000
C78 C 0.94615 0.66527 0.17103 0.00000
C79 C 0.92577 0.66707 0.17125 0.00000
C80 C 0.90697 0.64914 0.18542 0.00000
H81 H 0.87254 0.61719 0.29954 0.00000
H82 H 0.84471 0.62812 0.32735 0.00000
H83 H 0.82419 0.62899 0.19386 0.00000
H84 H 0.84979 0.61601 0.16660 0.00000
H85 H 0.86701 0.56312 0.18638 0.00000
H86 H 0.85419 0.54404 0.11736 0.00000
H87 H 0.87151 0.59946 0.04352 0.00000
H88 H 0.88397 0.61803 0.11372 0.00000
H89 H 0.93117 0.61615 0.20558 0.00000
H90 H 0.96197 0.64529 0.18412 0.00000
H91 H 0.92435 0.67999 0.16205 0.00000
H92 H 0.89300 0.65036 0.18684 0.00000
C93 C 0.27221 0.86260 0.04745 0.00000
C94 C 0.25210 0.85886 0.06726 0.00000
C95 C 0.23365 0.84113 0.05421 0.00000
C96 C 0.23556 0.82736 0.01989 0.00000
C97 C 0.25557 0.83136 0.99990 0.00000
C98 C 0.27375 0.84812 0.01312 0.00000
C99 C 0.31947 0.87955 0.05462 0.00000
C100 C 0.32929 0.87322 0.09204 0.00000
C101 C 0.34769 0.86833 0.08480 0.00000
C102 C 0.35717 0.87026 0.03959 0.00000
C103 C 0.34717 0.87648 0.00198 0.00000
P104 P 0.29504 0.88573 0.06943 0.00000
C105 C 0.32861 0.88120 0.01043 0.00000
C106 C 0.29662 0.90668 0.02613 0.00000
C107 C 0.30771 0.92760 0.04088 0.00000
C108 C 0.31008 0.94451 0.01120 0.00000
C109 C 0.30160 0.94113 0.96623 0.00000
C110 C 0.29031 0.92054 0.95051 0.00000
C111 C 0.28761 0.90318 0.98188 0.00000
H112 H 0.25062 0.86848 0.09029 0.00000
H113 H 0.21989 0.83860 0.06899 0.00000
H114 H 0.25686 0.82220 0.97517 0.00000
H115 H 0.28761 0.85005 0.99990 0.00000
H116 H 0.32332 0.87225 0.12304 0.00000
H117 H 0.35399 0.86362 0.11061 0.00000
H118 H 0.35296 0.87743 0.97085 0.00000
H119 H 0.32202 0.88572 0.98475 0.00000
H120 H 0.31371 0.93023 0.07187 0.00000
H121 H 0.31767 0.95866 0.02197 0.00000
H122 H 0.28452 0.91805 0.91938 0.00000
H123 H 0.27943 0.88902 0.97190 0.00000
C124 C 0.72783 0.13836 0.04799 0.00000
C125 C 0.74779 0.14210 0.06829 0.00000
C126 C 0.76631 0.15989 0.05556 0.00000
C127 C 0.76463 0.17373 0.02107 0.00000
C128 C 0.74476 0.16974 0.00010 0.00000
C129 C 0.72651 0.15291 0.01348 0.00000
C130 C 0.68051 0.12128 0.05409 0.00000
C131 C 0.67038 0.12748 0.09119 0.00000
C132 C 0.65201 0.13234 0.08342 0.00000
C133 C 0.64287 0.13050 0.03799 0.00000
C134 C 0.65318 0.12441 0.00010 0.00000
P135 P 0.70487 0.11514 0.06958 0.00000
C136 C 0.67171 0.11972 0.00968 0.00000
C137 C 0.70368 0.09432 0.02645 0.00000
C138 C 0.69253 0.07335 0.04111 0.00000
C139 C 0.69042 0.05653 0.01152 0.00000
C140 C 0.69925 0.06004 0.96675 0.00000
C141 C 0.71061 0.08068 0.95113 0.00000
C142 C 0.71303 0.09795 0.98241 0.00000
H143 H 0.74912 0.13243 0.09144 0.00000
H144 H 0.77996 0.16241 0.07067 0.00000
H145 H 0.74363 0.17894 0.97574 0.00000
H146 H 0.71274 0.15098 0.99990 0.00000
H147 H 0.67612 0.12839 0.12233 0.00000
H148 H 0.64549 0.13696 0.10902 0.00000
H149 H 0.64763 0.12353 0.96943 0.00000
H150 H 0.67851 0.11530 0.98421 0.00000
H151 H 0.68629 0.07062 0.07196 0.00000
H152 H 0.68278 0.04235 0.02222 0.00000
H153 H 0.71664 0.08327 0.92013 0.00000
H154 H 0.72126 0.11214 0.97250 0.00000
C155 C 0.59192 0.74551 0.66778 0.00000
C156 C 0.60486 0.75624 0.70439 0.00000
C157 C 0.60950 0.77798 0.71153 0.00000
C158 C 0.60133 0.78903 0.68049 0.00000
C159 C 0.58875 0.77837 0.64342 0.00000
C160 C 0.58352 0.75709 0.63714 0.00000
C161 C 0.56086 0.70656 0.62892 0.00000
C162 C 0.54180 0.69553 0.65394 0.00000
C163 C 0.52189 0.68701 0.63100 0.00000
C164 C 0.52068 0.68884 0.58167 0.00000
C165 C 0.53984 0.70006 0.55665 0.00000
P166 P 0.58635 0.71699 0.66405 0.00000
C167 C 0.55961 0.70852 0.58085 0.00000
C168 C 0.60732 0.71579 0.62180 0.00000
C169 C 0.61179 0.69718 0.62266 0.00000
C170 C 0.62700 0.69447 0.59224 0.00000
C171 C 0.63810 0.71006 0.56022 0.00000
C172 C 0.63420 0.72886 0.55865 0.00000
C173 C 0.61871 0.73163 0.59092 0.00000
H174 H 0.61084 0.74879 0.72537 0.00000
H175 H 0.61822 0.78506 0.73766 0.00000
H176 H 0.58350 0.78600 0.62140 0.00000
H177 H 0.57409 0.74998 0.61188 0.00000
H178 H 0.54243 0.69379 0.68724 0.00000
H179 H 0.50891 0.67985 0.64873 0.00000
H180 H 0.53938 0.70195 0.52341 0.00000
H181 H 0.57268 0.71592 0.56351 0.00000
H182 H 0.60424 0.68620 0.64455 0.00000
H183 H 0.62983 0.68168 0.59345 0.00000
H184 H 0.64169 0.73966 0.53643 0.00000
H185 H 0.61631 0.74466 0.59096 0.00000
C186 C 0.13942 0.38507 0.23271 0.00000
C187 C 0.14124 0.38092 0.27952 0.00000
C188 C 0.15776 0.37408 0.29553 0.00000
C189 C 0.17224 0.37096 0.26349 0.00000
C190 C 0.17013 0.37473 0.21664 0.00000
C191 C 0.15462 0.38208 0.20094 0.00000
C192 C 0.12722 0.40860 0.16000 0.00000
C193 C 0.13576 0.43066 0.16141 0.00000
C194 C 0.14316 0.44244 0.12065 0.00000
C195 C 0.14160 0.43229 0.07675 0.00000
C196 C 0.13316 0.41012 0.07548 0.00000
P197 P 0.11780 0.39486 0.21712 0.00000
C198 C 0.12593 0.39872 0.11719 0.00000
C199 C 0.09493 0.37044 0.19932 0.00000
C200 C 0.07411 0.37152 0.19958 0.00000
C201 C 0.05586 0.35428 0.18640 0.00000
C202 C 0.05777 0.33559 0.17258 0.00000
C203 C 0.07820 0.33389 0.17228 0.00000
C204 C 0.09692 0.35173 0.18683 0.00000
H205 H 0.13109 0.38268 0.30160 0.00000
H206 H 0.15898 0.37163 0.32832 0.00000
H207 H 0.17974 0.37216 0.19436 0.00000
H208 H 0.15407 0.38526 0.16825 0.00000
H209 H 0.13651 0.43777 0.19074 0.00000
H210 H 0.14936 0.45754 0.12231 0.00000
H211 H 0.13241 0.40286 0.04640 0.00000
H212 H 0.11991 0.38359 0.11603 0.00000
H213 H 0.07248 0.38434 0.20898 0.00000
H214 H 0.04180 0.35533 0.18690 0.00000
H215 H 0.07970 0.32109 0.16248 0.00000
H216 H 0.11092 0.35057 0.18789 0.00000
C217 C 0.40964 0.25286 0.66927 0.00000
C218 C 0.39661 0.24205 0.70590 0.00000
C219 C 0.39186 0.22027 0.71293 0.00000
C220 C 0.40002 0.20927 0.68176 0.00000
C221 C 0.41269 0.22000 0.64467 0.00000
C222 C 0.41803 0.24132 0.63849 0.00000
C223 C 0.44090 0.29186 0.63044 0.00000
C224 C 0.45994 0.30275 0.65540 0.00000
C225 C 0.47989 0.31126 0.63238 0.00000
C226 C 0.48119 0.30959 0.58302 0.00000
C227 C 0.46204 0.29851 0.55807 0.00000
P228 P 0.41534 0.28141 0.66568 0.00000
C229 C 0.44223 0.29004 0.58235 0.00000
C230 C 0.39449 0.28285 0.62359 0.00000
C231 C 0.39011 0.30150 0.62460 0.00000
C232 C 0.37500 0.30438 0.59431 0.00000
C233 C 0.36390 0.28892 0.56227 0.00000
C234 C 0.36770 0.27008 0.56055 0.00000
C235 C 0.38310 0.26712 0.59269 0.00000
H236 H 0.39064 0.24947 0.72697 0.00000
H237 H 0.38308 0.21313 0.73908 0.00000
H238 H 0.41794 0.21241 0.62257 0.00000
H239 H 0.42752 0.24848 0.61321 0.00000
H240 H 0.45926 0.30438 0.68872 0.00000
H241 H 0.49286 0.31832 0.65006 0.00000
H242 H 0.46255 0.29672 0.52481 0.00000
H243 H 0.42917 0.28275 0.56505 0.00000
H244 H 0.39767 0.31239 0.64651 0.00000
H245 H 0.37223 0.31721 0.59562 0.00000
H246 H 0.36022 0.25936 0.53831 0.00000
H247 H 0.38543 0.25406 0.59263 0.00000
C248 C 0.62127 0.87489 0.93108 0.00000
C249 C 0.62425 0.87354 0.88349 0.00000
C250 C 0.63103 0.85782 0.86465 0.00000
C251 C 0.63533 0.84364 0.89458 0.00000
C252 C 0.63275 0.84528 0.94217 0.00000
C253 C 0.62543 0.86002 0.96069 0.00000
C254 C 0.59889 0.88581 0.00895 0.00000
C255 C 0.57614 0.87729 0.01053 0.00000
C256 C 0.56522 0.86968 0.05248 0.00000
C257 C 0.57694 0.87099 0.09464 0.00000
C258 C 0.59980 0.87942 0.09288 0.00000
P259 P 0.61136 0.89550 0.95054 0.00000
C260 C 0.61030 0.88686 0.05003 0.00000
C261 C 0.63685 0.91777 0.96633 0.00000
C262 C 0.63550 0.93784 0.96839 0.00000
C263 C 0.65349 0.95557 0.98036 0.00000
C264 C 0.67322 0.95387 0.99067 0.00000
C265 C 0.67521 0.93419 0.98859 0.00000
C266 C 0.65656 0.91600 0.97531 0.00000
H267 H 0.62168 0.88349 0.86282 0.00000
H268 H 0.63264 0.85692 0.83141 0.00000
H269 H 0.63615 0.83587 0.96295 0.00000
H270 H 0.62307 0.86027 0.99390 0.00000
H271 H 0.56797 0.87668 0.98246 0.00000
H272 H 0.54964 0.86351 0.05285 0.00000
H273 H 0.60812 0.88002 0.12068 0.00000
H274 H 0.62591 0.89286 0.04915 0.00000
H275 H 0.62196 0.93931 0.96142 0.00000
H276 H 0.65224 0.96913 0.98148 0.00000
H277 H 0.68874 0.93283 0.99597 0.00000
H278 H 0.65788 0.90251 0.97262 0.00000
C279 C 0.73236 0.59632 0.49669 0.00000
C280 C 0.74020 0.60549 0.45393 0.00000
C281 C 0.76227 0.61079 0.44126 0.00000
C282 C 0.77662 0.60720 0.47280 0.00000
C283 C 0.76885 0.59842 0.51584 0.00000
C284 C 0.74728 0.59252 0.52785 0.00000
C285 C 0.69668 0.56851 0.55390 0.00000
C286 C 0.68547 0.54777 0.53909 0.00000
C287 C 0.67986 0.53108 0.57091 0.00000
C288 C 0.68485 0.53488 0.61915 0.00000
C289 C 0.69626 0.55573 0.63388 0.00000
P290 P 0.70303 0.58929 0.50764 0.00000
C291 C 0.70175 0.57216 0.60091 0.00000
C292 C 0.70215 0.61245 0.54066 0.00000
C293 C 0.68199 0.61495 0.54135 0.00000
C294 C 0.67941 0.63158 0.56541 0.00000
C295 C 0.69666 0.64608 0.58941 0.00000
C296 C 0.71700 0.64419 0.58914 0.00000
C297 C 0.71958 0.62712 0.56338 0.00000
H298 H 0.73048 0.60833 0.43243 0.00000
H299 H 0.76731 0.61682 0.41104 0.00000
H300 H 0.77876 0.59635 0.53804 0.00000
H301 H 0.74223 0.58576 0.55750 0.00000
H302 H 0.68159 0.54499 0.50670 0.00000
H303 H 0.67256 0.51692 0.56009 0.00000
H304 H 0.70029 0.55867 0.66613 0.00000
H305 H 0.70928 0.58639 0.61127 0.00000
H306 H 0.66986 0.60505 0.52499 0.00000
H307 H 0.66553 0.63303 0.56538 0.00000
H308 H 0.72898 0.65405 0.60589 0.00000
H309 H 0.73358 0.62597 0.56198 0.00000
C310 C 0.13338 0.72465 0.14513 0.00000
C311 C 0.13687 0.74381 0.12399 0.00000
C312 C 0.15435 0.76228 0.13762 0.00000
C313 C 0.16811 0.76135 0.17386 0.00000
C314 C 0.16434 0.74228 0.19555 0.00000
C315 C 0.14787 0.72410 0.18145 0.00000
C316 C 0.11779 0.67879 0.14014 0.00000
C317 C 0.12559 0.66937 0.10451 0.00000
C318 C 0.13132 0.65211 0.11408 0.00000
C319 C 0.12876 0.64337 0.15984 0.00000
C320 C 0.12106 0.65296 0.19565 0.00000
P321 P 0.11062 0.70169 0.12229 0.00000
C322 C 0.11552 0.67039 0.18488 0.00000
C323 C 0.08789 0.69965 0.16292 0.00000
C324 C 0.06680 0.68805 0.14648 0.00000
C325 C 0.04861 0.68531 0.17412 0.00000
C326 C 0.05085 0.69393 0.21866 0.00000
C327 C 0.07157 0.70572 0.23601 0.00000
C328 C 0.09026 0.70878 0.20671 0.00000
H329 H 0.12722 0.74460 0.09961 0.00000
H330 H 0.15672 0.77537 0.12193 0.00000
H331 H 0.17346 0.74165 0.22116 0.00000
H332 H 0.14614 0.71092 0.19621 0.00000
H333 H 0.12700 0.67484 0.07314 0.00000
H334 H 0.13704 0.64608 0.08951 0.00000
H335 H 0.11966 0.64767 0.22714 0.00000
H336 H 0.11000 0.67669 0.20932 0.00000
H337 H 0.06494 0.68194 0.11575 0.00000
H338 H 0.03436 0.67737 0.16222 0.00000
H339 H 0.07329 0.71162 0.26687 0.00000
H340 H 0.10450 0.71728 0.21777 0.00000
C341 C 0.37844 0.12160 0.93139 0.00000
C342 C 0.37611 0.12307 0.88362 0.00000
C343 C 0.36944 0.13876 0.86408 0.00000
C344 C 0.36461 0.15277 0.89348 0.00000
C345 C 0.36655 0.15101 0.94123 0.00000
C346 C 0.37375 0.13630 0.96046 0.00000
C347 C 0.39988 0.11064 0.01075 0.00000
C348 C 0.42259 0.11929 0.01350 0.00000
C349 C 0.43290 0.12683 0.05593 0.00000
C350 C 0.42058 0.12531 0.09741 0.00000
C351 C 0.39775 0.11674 0.09447 0.00000
P352 P 0.38827 0.10106 0.95183 0.00000
C353 C 0.38788 0.10938 0.05117 0.00000
C354 C 0.36267 0.07862 0.96655 0.00000
C355 C 0.36415 0.05861 0.96907 0.00000
C356 C 0.34608 0.04076 0.98033 0.00000
C357 C 0.32615 0.04227 0.98945 0.00000
C358 C 0.32403 0.06190 0.98687 0.00000
C359 C 0.34277 0.08021 0.97433 0.00000
H360 H 0.37904 0.11324 0.86330 0.00000
H361 H 0.36828 0.13975 0.83074 0.00000
H362 H 0.36278 0.16030 0.96162 0.00000
H363 H 0.37565 0.13597 0.99380 0.00000
H364 H 0.43117 0.12004 0.98590 0.00000
H365 H 0.44847 0.13309 0.05709 0.00000
H366 H 0.38904 0.11599 0.12179 0.00000
H367 H 0.37229 0.10328 0.04949 0.00000
H368 H 0.37782 0.05726 0.96293 0.00000
H369 H 0.34743 0.02725 0.98178 0.00000
H370 H 0.31036 0.06313 0.99343 0.00000
H371 H 0.34138 0.09366 0.97131 0.00000
H372 H 0.48986 0.85311 0.15091 0.00000
H373 H 0.50866 0.87362 0.16992 0.00000
H374 H 0.51745 0.89542 0.21507 0.00000
H375 H 0.51014 0.90642 0.25704 0.00000
H376 H 0.51486 0.91731 0.20704 0.00000
H377 H 0.41407 0.84260 0.17935 0.00000
H378 H 0.40846 0.85827 0.21300 0.00000
H379 H 0.45828 0.83699 0.13929 0.00000
H380 H 0.43390 0.83478 0.14785 0.00000
H381 H 0.44683 0.82844 0.18793 0.00000
H382 H 0.43477 0.91415 0.20561 0.00000
H383 H 0.43013 0.90273 0.25502 0.00000
H384 H 0.41633 0.89148 0.21079 0.00000
C385 C 0.45594 0.86070 0.18117 0.00000
C386 C 0.44053 0.86992 0.19167 0.00000
C387 C 0.47806 0.87213 0.18990 0.00000
C388 C 0.49481 0.86242 0.17807 0.00000
C389 C 0.46967 0.90139 0.21961 0.00000
C390 C 0.48517 0.89228 0.20998 0.00000
C391 C 0.44737 0.89045 0.21042 0.00000
H392 H 0.49099 0.92680 0.25515 0.00000
H393 H 0.46639 0.92408 0.26298 0.00000
C394 C 0.50912 0.90394 0.22355 0.00000
C395 C 0.41636 0.85745 0.18448 0.00000
C396 C 0.44801 0.83815 0.16233 0.00000
C397 C 0.43058 0.90066 0.22149 0.00000
C398 C 0.47696 0.92346 0.23947 0.00000
H399 H 0.56130 0.37783 0.66627 0.00000
H400 H 0.53765 0.37826 0.67217 0.00000
H401 H 0.51797 0.39138 0.65599 0.00000
H402 H 0.51485 0.41062 0.63036 0.00000
H403 H 0.51571 0.41000 0.68578 0.00000
H404 H 0.62227 0.44206 0.62605 0.00000
H405 H 0.61779 0.46257 0.61269 0.00000
H406 H 0.59326 0.39326 0.65775 0.00000
H407 H 0.61267 0.41477 0.64656 0.00000
H408 H 0.59757 0.40176 0.60558 0.00000
H409 H 0.58285 0.48106 0.67916 0.00000
H410 H 0.58215 0.48114 0.62370 0.00000
H411 H 0.60311 0.48091 0.64984 0.00000
C412 C 0.58278 0.41777 0.64579 0.00000
C413 C 0.59155 0.44010 0.64539 0.00000
C414 C 0.56027 0.40714 0.65139 0.00000
C415 C 0.55072 0.38307 0.65252 0.00000
C416 C 0.55520 0.44038 0.65554 0.00000
C417 C 0.54620 0.41815 0.65531 0.00000
C418 C 0.57780 0.45152 0.65085 0.00000
H419 H 0.52572 0.44387 0.65226 0.00000
H420 H 0.54554 0.46511 0.64115 0.00000
C421 C 0.52139 0.40645 0.65701 0.00000
C422 C 0.61580 0.45197 0.63724 0.00000
C423 C 0.59797 0.40579 0.63822 0.00000
C424 C 0.58738 0.47594 0.65090 0.00000
C425 C 0.54052 0.45269 0.66167 0.00000
H426 H 0.58326 0.15628 0.19000 0.00000
H427 H 0.58892 0.13663 0.20586 0.00000
H428 H 0.58097 0.10701 0.20526 0.00000
H429 H 0.56297 0.08500 0.19176 0.00000
H430 H 0.56626 0.09220 0.24485 0.00000
H431 H 0.50825 0.14775 0.15900 0.00000
H432 H 0.49008 0.12483 0.15864 0.00000
H433 H 0.56110 0.16893 0.17640 0.00000
H434 H 0.53634 0.16546 0.16866 0.00000
H435 H 0.54961 0.15961 0.12844 0.00000
H436 H 0.48535 0.08656 0.24742 0.00000
H437 H 0.48251 0.07996 0.19395 0.00000
H438 H 0.47902 0.10060 0.21040 0.00000
C439 C 0.54084 0.13763 0.18200 0.00000
C440 C 0.51849 0.12567 0.18961 0.00000
C441 C 0.55621 0.12849 0.19131 0.00000
C442 C 0.58035 0.14137 0.18384 0.00000
C443 C 0.52760 0.09593 0.21483 0.00000
C444 C 0.54988 0.10755 0.20677 0.00000
C445 C 0.51179 0.10482 0.20664 0.00000
H446 H 0.53142 0.06775 0.22583 0.00000
H447 H 0.50681 0.06487 0.21784 0.00000
C448 C 0.56656 0.09696 0.21270 0.00000
C449 C 0.50145 0.13494 0.17774 0.00000
C450 C 0.54759 0.15996 0.16204 0.00000
C451 C 0.48739 0.09177 0.21543 0.00000
C452 C 0.52035 0.07359 0.23337 0.00000
H453 H 0.44081 0.62048 0.66646 0.00000
H454 H 0.46446 0.62004 0.67212 0.00000
H455 H 0.48414 0.60695 0.65576 0.00000
H456 H 0.48727 0.58773 0.63015 0.00000
H457 H 0.48640 0.58829 0.68558 0.00000
H458 H 0.37986 0.55630 0.62706 0.00000
H459 H 0.38433 0.53580 0.61370 0.00000
H460 H 0.40885 0.60507 0.65832 0.00000
H461 H 0.38945 0.58356 0.64739 0.00000
H462 H 0.40456 0.59662 0.60622 0.00000
H463 H 0.41925 0.51724 0.67985 0.00000
H464 H 0.41997 0.51722 0.62438 0.00000
H465 H 0.39900 0.51742 0.65074 0.00000
C466 C 0.41933 0.58056 0.64631 0.00000
C467 C 0.41056 0.55823 0.64606 0.00000
C468 C 0.44184 0.59119 0.65165 0.00000
C469 C 0.45139 0.61525 0.65262 0.00000
C470 C 0.44691 0.55795 0.65583 0.00000
C471 C 0.45591 0.58018 0.65545 0.00000
C472 C 0.42431 0.54681 0.65141 0.00000
H473 H 0.47640 0.55446 0.65225 0.00000
H474 H 0.45658 0.53323 0.64140 0.00000
C475 C 0.48073 0.59187 0.65686 0.00000
C476 C 0.38632 0.54637 0.63820 0.00000
C477 C 0.40415 0.59255 0.63887 0.00000
C478 C 0.41474 0.52239 0.65163 0.00000
C479 C 0.46159 0.54563 0.66185 0.00000
H480 H 0.15526 0.51800 0.04417 0.00000
H481 H 0.13449 0.49912 0.02585 0.00000
H482 H 0.11131 0.48984 0.98244 0.00000
H483 H 0.09859 0.49644 0.94237 0.00000
H484 H 0.08827 0.49090 0.99310 0.00000
H485 H 0.16132 0.59058 0.02108 0.00000
H486 H 0.14393 0.59521 0.98970 0.00000
H487 H 0.17054 0.54877 0.05668 0.00000
H488 H 0.17126 0.57204 0.04998 0.00000
H489 H 0.17801 0.56052 0.00814 0.00000
H490 H 0.08686 0.56687 0.00103 0.00000
H491 H 0.09775 0.57236 0.95081 0.00000
H492 H 0.10952 0.58574 0.99491 0.00000
C493 C 0.14475 0.54988 0.01769 0.00000
C494 C 0.13395 0.56399 0.00955 0.00000
C495 C 0.13389 0.52833 0.00836 0.00000
C496 C 0.14530 0.51297 0.01766 0.00000
C497 C 0.10212 0.53473 0.98265 0.00000
C498 C 0.11278 0.52054 0.98993 0.00000
C499 C 0.11246 0.55642 0.99252 0.00000
H500 H 0.07605 0.51331 0.94815 0.00000
H501 H 0.07732 0.53681 0.94213 0.00000
C502 C 0.10171 0.49728 0.97562 0.00000
C503 C 0.14576 0.58756 0.01742 0.00000
C504 C 0.16831 0.55860 0.03468 0.00000
C505 C 0.10053 0.57178 0.98403 0.00000
C506 C 0.07900 0.52666 0.96464 0.00000
H507 H 0.84010 0.41128 0.01137 0.00000
H508 H 0.86137 0.40694 0.99844 0.00000
H509 H 0.89203 0.41627 0.00168 0.00000
H510 H 0.91387 0.43481 0.01584 0.00000
H511 H 0.90742 0.43062 0.96235 0.00000
H512 H 0.84407 0.48314 0.03541 0.00000
H513 H 0.86709 0.50174 0.03655 0.00000
H514 H 0.82525 0.43164 0.02112 0.00000
H515 H 0.82729 0.45537 0.02665 0.00000
H516 H 0.83353 0.44366 0.06890 0.00000
H517 H 0.90858 0.50748 0.95191 0.00000
H518 H 0.91442 0.51121 0.00577 0.00000
H519 H 0.89280 0.51305 0.98655 0.00000
C520 C 0.85705 0.45265 0.01707 0.00000
C521 C 0.86843 0.47443 0.00853 0.00000
C522 C 0.86774 0.43855 0.01048 0.00000
C523 C 0.85550 0.41502 0.01897 0.00000
C524 C 0.90068 0.46733 0.98780 0.00000
C525 C 0.88965 0.44564 0.99684 0.00000
C526 C 0.89025 0.48184 0.99327 0.00000
H527 H 0.93073 0.46530 0.98053 0.00000
H528 H 0.93215 0.48885 0.98625 0.00000
C529 C 0.90188 0.43043 0.99392 0.00000
C530 C 0.85746 0.49013 0.01749 0.00000
C531 C 0.83363 0.44514 0.03509 0.00000
C532 C 0.90267 0.50562 0.98345 0.00000
C533 C 0.92406 0.47532 0.97115 0.00000
N534 N 0.47892 0.01875 0.25018 0.00000
H535 H 0.44602 0.94425 0.25669 0.00000
H536 H 0.47480 0.04578 0.26310 0.00000
H537 H 0.50622 0.95041 0.22390 0.00000
H538 H 0.51586 0.98616 0.21915 0.00000
H539 H 0.53377 0.05414 0.21489 0.00000
H540 H 0.52343 0.01785 0.20973 0.00000
Rh541 Rh 0.45208 0.99360 0.25892 0.00000
C542 C 0.47475 0.94294 0.23937 0.00000
C543 C 0.50540 0.05399 0.24157 0.00000
C544 C 0.46041 0.95268 0.24887 0.00000
C545 C 0.48509 0.04027 0.25291 0.00000
C546 C 0.49560 0.95620 0.22933 0.00000
C547 C 0.46615 0.97419 0.24748 0.00000
C548 C 0.48674 0.98684 0.23569 0.00000
C549 C 0.49310 0.01032 0.23507 0.00000
C550 C 0.50148 0.97766 0.22690 0.00000
C551 C 0.51977 0.04530 0.22445 0.00000
C552 C 0.51355 0.02360 0.22138 0.00000
N553 N 0.50163 0.47396 0.64819 0.00000
H554 H 0.44676 0.50257 0.63512 0.00000
H555 H 0.51086 0.45045 0.62856 0.00000
H556 H 0.49169 0.54945 0.70176 0.00000
H557 H 0.51319 0.52993 0.70591 0.00000
H558 H 0.55424 0.49293 0.70896 0.00000
H559 H 0.53101 0.51121 0.71404 0.00000
Rh560 Rh 0.47182 0.46990 0.62804 0.00000
C561 C 0.46630 0.52808 0.66927 0.00000
C562 C 0.53530 0.46983 0.66624 0.00000
C563 C 0.46036 0.50836 0.64983 0.00000
C564 C 0.51540 0.46311 0.64551 0.00000
C565 C 0.48655 0.53578 0.68915 0.00000
C566 C 0.47340 0.49671 0.65087 0.00000
C567 C 0.49303 0.50448 0.67239 0.00000
C568 C 0.50742 0.49194 0.67273 0.00000
C569 C 0.49957 0.52420 0.69129 0.00000
C570 C 0.54095 0.48799 0.69288 0.00000
C571 C 0.52702 0.49889 0.69588 0.00000
N572 N 0.97875 0.51221 0.93132 0.00000
H573 H 0.05496 0.54435 0.90981 0.00000
H574 H 0.94973 0.50804 0.90376 0.00000
H575 H 0.05337 0.50889 0.02087 0.00000
H576 H 0.01633 0.49834 0.02339 0.00000
H577 H 0.94584 0.47729 0.02394 0.00000
H578 H 0.98347 0.49108 0.02824 0.00000
Rh579 Rh 0.00321 0.53266 0.89591 0.00000
C580 C 0.05871 0.52845 0.96592 0.00000
C581 C 0.94359 0.49063 0.96178 0.00000
C582 C 0.04722 0.53492 0.93337 0.00000
C583 C 0.95644 0.50410 0.92907 0.00000
C584 C 0.04637 0.51430 0.99861 0.00000
C585 C 0.02492 0.52822 0.93368 0.00000
C586 C 0.01323 0.51481 0.96760 0.00000
C587 C 0.98889 0.50719 0.96739 0.00000
C588 C 0.02415 0.50779 0.99990 0.00000
C589 C 0.95403 0.48603 0.99990 0.00000
C590 C 0.97653 0.49430 0.00229 0.00000
C591 C 0.55381 0.88650 0.09704 0.00000
H592 H 0.50535 0.88417 0.12702 0.00000
C593 C 0.53760 0.85914 0.15402 0.00000
C594 C 0.55474 0.86973 0.12458 0.00000
H595 H 0.56560 0.89421 0.07773 0.00000
H596 H 0.53833 0.84827 0.17334 0.00000
H597 H 0.54475 0.92185 0.08165 0.00000
H598 H 0.52193 0.91004 0.06940 0.00000
H599 H 0.53940 0.90835 0.03997 0.00000
N600 N 0.53539 0.90978 0.06950 0.00000
C601 C 0.51911 0.86448 0.15542 0.00000
C602 C 0.51781 0.88073 0.12692 0.00000
C603 C 0.53554 0.89158 0.09854 0.00000
C604 C 0.68321 0.49941 0.60501 0.00000
H605 H 0.64767 0.45111 0.60255 0.00000
C606 C 0.65008 0.49677 0.64399 0.00000
C607 C 0.67107 0.50884 0.63077 0.00000
H608 H 0.69733 0.50755 0.59472 0.00000
H609 H 0.64170 0.50306 0.66019 0.00000
H610 H 0.68864 0.47368 0.53703 0.00000
H611 H 0.68106 0.45478 0.56687 0.00000
H612 H 0.70088 0.47267 0.57917 0.00000
N613 N 0.68754 0.46890 0.56666 0.00000
C614 C 0.64112 0.47521 0.63341 0.00000
C615 C 0.65339 0.46560 0.60908 0.00000
C616 C 0.67428 0.47819 0.59492 0.00000
C617 C 0.60663 0.14617 0.03407 0.00000
H618 H 0.57571 0.15585 0.11282 0.00000
C619 C 0.61506 0.13750 0.11145 0.00000
C620 C 0.61864 0.13806 0.06374 0.00000
H621 H 0.60928 0.14715 0.00162 0.00000
H622 H 0.62337 0.13258 0.13157 0.00000
H623 H 0.58791 0.17422 0.00973 0.00000
H624 H 0.56769 0.16303 0.03559 0.00000
H625 H 0.57388 0.15282 0.99584 0.00000
N626 N 0.57891 0.16158 0.02024 0.00000
C627 C 0.59914 0.14421 0.13021 0.00000
C628 C 0.58665 0.15167 0.10067 0.00000
C629 C 0.59097 0.15267 0.05283 0.00000
C630 C 0.51734 0.65926 0.60341 0.00000
H631 H 0.48692 0.61851 0.66470 0.00000
C632 C 0.48025 0.65696 0.60552 0.00000
C633 C 0.50147 0.66755 0.59152 0.00000
H634 H 0.53176 0.66600 0.59309 0.00000
H635 H 0.46948 0.66212 0.59676 0.00000
H636 H 0.53247 0.62743 0.61504 0.00000
H637 H 0.52384 0.62241 0.66289 0.00000
H638 H 0.54068 0.64308 0.65248 0.00000
N639 N 0.52888 0.63267 0.64125 0.00000
C640 C 0.47460 0.63856 0.63266 0.00000
C641 C 0.49048 0.63060 0.64589 0.00000
C642 C 0.51164 0.64120 0.63023 0.00000
C643 C 0.52282 0.33220 0.54110 0.00000
H644 H 0.56339 0.37305 0.57952 0.00000
C645 C 0.51515 0.34241 0.61769 0.00000
C646 C 0.50846 0.32941 0.57923 0.00000
H647 H 0.51871 0.32311 0.51519 0.00000
H648 H 0.50587 0.34032 0.64373 0.00000
H649 H 0.56254 0.33966 0.50136 0.00000
H650 H 0.56930 0.36269 0.50343 0.00000
H651 H 0.55071 0.35027 0.47439 0.00000
N652 N 0.55787 0.35044 0.50123 0.00000
C653 C 0.53569 0.35870 0.61829 0.00000
C654 C 0.54978 0.36198 0.57976 0.00000
C655 C 0.54295 0.34830 0.54196 0.00000
C656 C 0.17304 0.45985 0.02422 0.00000
H657 H 0.18382 0.50804 0.98774 0.00000
C658 C 0.14317 0.47087 0.03971 0.00000
C659 C 0.15180 0.45535 0.04121 0.00000
H660 H 0.17934 0.44962 0.02612 0.00000
H661 H 0.12922 0.46816 0.05202 0.00000
H662 H 0.21588 0.48465 0.01286 0.00000
H663 H 0.21202 0.49572 0.97171 0.00000
H664 H 0.20725 0.47297 0.96960 0.00000
N665 N 0.20719 0.48360 0.98809 0.00000
C666 C 0.15503 0.49065 0.02005 0.00000
C667 C 0.17592 0.49498 0.00169 0.00000
C668 C 0.18454 0.47932 0.00482 0.00000
C669 C 0.37111 0.83903 0.06033 0.00000
H670 H 0.39546 0.82647 0.14829 0.00000
C671 C 0.38753 0.86864 0.11142 0.00000
C672 C 0.37613 0.86044 0.07105 0.00000
H673 H 0.36287 0.83309 0.03360 0.00000
H674 H 0.39048 0.88277 0.11939 0.00000
H675 H 0.35796 0.79717 0.08198 0.00000
H676 H 0.37981 0.79844 0.09527 0.00000
H677 H 0.37541 0.80291 0.04682 0.00000
N678 N 0.37226 0.80406 0.07713 0.00000
C679 C 0.39473 0.85606 0.14067 0.00000
C680 C 0.39039 0.83490 0.12936 0.00000
C681 C 0.37832 0.82682 0.08923 0.00000
C682 C 0.87791 0.55120 0.08688 0.00000
H683 H 0.88169 0.50525 0.07246 0.00000
C684 C 0.85584 0.53248 0.02246 0.00000
C685 C 0.86292 0.54999 0.05099 0.00000
H686 H 0.88331 0.56326 0.10581 0.00000
H687 H 0.84625 0.53179 0.99773 0.00000
H688 H 0.91384 0.54631 0.12330 0.00000
H689 H 0.90213 0.52418 0.13659 0.00000
H690 H 0.89646 0.54087 0.15859 0.00000
N691 N 0.90090 0.53670 0.13191 0.00000
C692 C 0.86283 0.51572 0.02999 0.00000
C693 C 0.87721 0.51654 0.06665 0.00000
C694 C 0.88463 0.53461 0.09410 0.00000
C695 C 0.15779 0.62224 0.15295 0.00000
H696 H 0.17085 0.59679 0.06868 0.00000
C697 C 0.13299 0.61610 0.08828 0.00000
C698 C 0.13907 0.62385 0.13281 0.00000
H699 H 0.16245 0.62793 0.18276 0.00000
H700 H 0.12083 0.61758 0.07417 0.00000
H701 H 0.19972 0.62424 0.15128 0.00000
H702 H 0.19387 0.60253 0.13445 0.00000
H703 H 0.18625 0.60648 0.18052 0.00000
N704 N 0.18928 0.61129 0.15096 0.00000
C705 C 0.14481 0.60606 0.06389 0.00000
C706 C 0.16306 0.60380 0.08440 0.00000
C707 C 0.16926 0.61228 0.12875 0.00000
C708 C 0.43445 0.10236 0.12330 0.00000
H709 H 0.47923 0.09852 0.16185 0.00000
C710 C 0.45870 0.13542 0.15426 0.00000
C711 C 0.43937 0.12389 0.13252 0.00000
H712 H 0.42110 0.09417 0.10961 0.00000
H713 H 0.46186 0.14966 0.16155 0.00000
H714 H 0.43275 0.06282 0.14500 0.00000
H715 H 0.45500 0.06690 0.12880 0.00000
H716 H 0.43842 0.06750 0.09539 0.00000
N717 N 0.44326 0.07034 0.12498 0.00000
C718 C 0.47367 0.12608 0.16561 0.00000
C719 C 0.46916 0.10481 0.15512 0.00000
C720 C 0.44930 0.09334 0.13445 0.00000
C721 C 0.32486 0.49351 0.69424 0.00000
H722 H 0.36385 0.53902 0.71283 0.00000
C723 C 0.35069 0.50277 0.63080 0.00000
C724 C 0.33216 0.48848 0.65114 0.00000
H725 H 0.31196 0.48417 0.70792 0.00000
H726 H 0.35537 0.49975 0.60152 0.00000
H727 H 0.31619 0.51993 0.75587 0.00000
H728 H 0.33837 0.52836 0.77476 0.00000
H729 H 0.32484 0.50597 0.78089 0.00000
N730 N 0.32817 0.51711 0.76145 0.00000
C731 C 0.36260 0.52175 0.65341 0.00000
C732 C 0.35579 0.52653 0.69708 0.00000
C733 C 0.33672 0.51218 0.71626 0.00000
C734 C 0.83543 0.36084 0.13805 0.00000
H735 H 0.81705 0.38164 0.05300 0.00000
C736 C 0.86467 0.38748 0.09732 0.00000
C737 C 0.85778 0.37293 0.13319 0.00000
H738 H 0.83054 0.35048 0.16156 0.00000
H739 H 0.87959 0.39524 0.09316 0.00000
H740 H 0.79499 0.33756 0.10485 0.00000
H741 H 0.78919 0.35600 0.09612 0.00000
H742 H 0.79337 0.35075 0.14412 0.00000
N743 N 0.79722 0.35079 0.11387 0.00000
C744 C 0.84961 0.39079 0.06699 0.00000
C745 C 0.82727 0.37928 0.07261 0.00000
C746 C 0.82075 0.36426 0.10815 0.00000
H747 H 0.30954 0.34124 0.55965 0.00000
H748 H 0.29129 0.28884 0.62147 0.00000
H749 H 0.32074 0.27401 0.61627 0.00000
C750 C 0.35967 0.30105 0.56841 0.00000
H751 H 0.34364 0.33252 0.55884 0.00000
H752 H 0.36279 0.29047 0.58840 0.00000
H753 H 0.37196 0.31492 0.57207 0.00000
N754 N 0.31385 0.31567 0.58820 0.00000
N755 N 0.33930 0.30297 0.58422 0.00000
H756 H 0.28719 0.32336 0.57824 0.00000
C757 C 0.30293 0.33101 0.58564 0.00000
C758 C 0.30552 0.29566 0.60825 0.00000
C759 C 0.32157 0.28760 0.60553 0.00000
C760 C 0.33426 0.31980 0.57387 0.00000
H761 H 0.03957 0.31159 0.19809 0.00000
H762 H 0.99857 0.30391 0.10204 0.00000
H763 H 0.96554 0.30895 0.13458 0.00000
C764 C 0.96870 0.32018 0.23277 0.00000
H765 H 0.01084 0.32242 0.23724 0.00000
H766 H 0.95719 0.32400 0.21704 0.00000
H767 H 0.97696 0.33198 0.25425 0.00000
N768 N 0.01196 0.31292 0.16926 0.00000
N769 N 0.98358 0.31749 0.19711 0.00000
H770 H 0.03451 0.30131 0.14632 0.00000
C771 C 0.03443 0.31338 0.16604 0.00000
C772 C 0.99679 0.30824 0.13324 0.00000
C773 C 0.97881 0.31104 0.15091 0.00000
C774 C 0.00369 0.31846 0.20756 0.00000
H775 H 0.96334 0.69099 0.18862 0.00000
H776 H 0.00252 0.68807 0.09582 0.00000
H777 H 0.03441 0.68303 0.13406 0.00000
C778 C 0.03154 0.67965 0.23516 0.00000
H779 H 0.99067 0.68094 0.23539 0.00000
H780 H 0.04217 0.67368 0.22277 0.00000
H781 H 0.02282 0.67005 0.26045 0.00000
N782 N 0.98959 0.68527 0.16424 0.00000
N783 N 0.01697 0.68069 0.19709 0.00000
H784 H 0.96850 0.69692 0.13382 0.00000
C785 C 0.96780 0.68626 0.15852 0.00000
C786 C 0.00424 0.68601 0.12862 0.00000
C787 C 0.02159 0.68322 0.14942 0.00000
C788 C 0.99757 0.68206 0.20534 0.00000
H789 H 0.28876 0.95109 0.97692 0.00000
H790 H 0.30066 0.98705 0.87199 0.00000
H791 H 0.31919 0.02461 0.89817 0.00000
C792 C 0.32717 0.02946 0.99795 0.00000
H793 H 0.31167 0.98666 0.01152 0.00000
H794 H 0.33676 0.04228 0.98061 0.00000
H795 H 0.33605 0.02623 0.02291 0.00000
N796 N 0.30284 0.97920 0.94285 0.00000
N797 N 0.31902 0.01156 0.96528 0.00000
H798 H 0.28117 0.95041 0.92288 0.00000
C799 C 0.29395 0.95588 0.94441 0.00000
C800 C 0.30522 0.99178 0.90324 0.00000
C801 C 0.31536 0.01224 0.91746 0.00000
C802 C 0.31126 0.99143 0.97998 0.00000
H803 H 0.67892 0.03965 0.97040 0.00000
H804 H 0.72617 0.03390 0.03360 0.00000
H805 H 0.72412 0.99653 0.02645 0.00000
C806 C 0.68801 0.96960 0.97101 0.00000
H807 H 0.67576 0.00261 0.94826 0.00000
H808 H 0.69951 0.96346 0.97362 0.00000
H809 H 0.68257 0.96768 0.93802 0.00000
N810 N 0.69903 0.02440 0.98860 0.00000
N811 N 0.69743 0.99227 0.98204 0.00000
H812 H 0.69677 0.05210 0.00932 0.00000
C813 C 0.69447 0.04371 0.97973 0.00000
C814 C 0.71582 0.02285 0.01565 0.00000
C815 C 0.71475 0.00251 0.01167 0.00000
C816 C 0.68809 0.00577 0.96859 0.00000
H817 H 0.70181 0.67513 0.61659 0.00000
H818 H 0.64155 0.64873 0.63602 0.00000
H819 H 0.62194 0.66589 0.58489 0.00000
C820 C 0.65013 0.69913 0.52519 0.00000
H821 H 0.68619 0.69178 0.55370 0.00000
H822 H 0.63488 0.69378 0.51314 0.00000
H823 H 0.66016 0.70131 0.49777 0.00000
N824 N 0.66991 0.66878 0.60160 0.00000
N825 N 0.65297 0.68339 0.55717 0.00000
H826 H 0.68526 0.65995 0.65488 0.00000
C827 C 0.68770 0.66296 0.62055 0.00000
C828 C 0.64797 0.65954 0.61304 0.00000
C829 C 0.63727 0.66884 0.58511 0.00000
C830 C 0.67262 0.68316 0.56781 0.00000
H831 H 0.19091 0.35630 0.29471 0.00000
H832 H 0.15007 0.36571 0.37415 0.00000
H833 H 0.16925 0.38684 0.44394 0.00000
C834 C 0.21596 0.39878 0.44231 0.00000
H835 H 0.21481 0.38175 0.35492 0.00000
H836 H 0.21168 0.40798 0.46425 0.00000
H837 H 0.22908 0.40791 0.42443 0.00000
N838 N 0.18150 0.37011 0.34953 0.00000
N839 N 0.19803 0.38852 0.40944 0.00000
H840 H 0.16492 0.34690 0.30348 0.00000
C841 C 0.17817 0.36016 0.30268 0.00000
C842 C 0.16547 0.37161 0.37926 0.00000
C843 C 0.17591 0.38316 0.41722 0.00000
C844 C 0.20106 0.38040 0.36836 0.00000
H845 H 0.76442 0.19270 0.04400 0.00000
H846 H 0.82154 0.22952 0.01733 0.00000
H847 H 0.84345 0.23739 0.09159 0.00000
C848 C 0.81984 0.21564 0.17355 0.00000
H849 H 0.78383 0.19383 0.12128 0.00000
H850 H 0.83588 0.22053 0.17878 0.00000
H851 H 0.81298 0.20110 0.18687 0.00000
N852 N 0.79648 0.20849 0.05900 0.00000
N853 N 0.81546 0.21511 0.12285 0.00000
H854 H 0.77755 0.20867 0.00276 0.00000
C855 C 0.77843 0.19808 0.02615 0.00000
C856 C 0.81680 0.22340 0.04762 0.00000
C857 C 0.82876 0.22766 0.08804 0.00000
C858 C 0.79596 0.20368 0.10459 0.00000
H859 H 0.81170 0.61200 0.28295 0.00000
H860 H 0.78117 0.64507 0.32664 0.00000
H861 H 0.77932 0.64347 0.41468 0.00000
C862 C 0.80162 0.61858 0.45660 0.00000
H863 H 0.81681 0.61167 0.37118 0.00000
H864 H 0.79940 0.62845 0.48008 0.00000
H865 H 0.81660 0.61860 0.46091 0.00000
N866 N 0.80094 0.62711 0.33304 0.00000
N867 N 0.79954 0.62594 0.40893 0.00000
H868 H 0.79527 0.62255 0.26284 0.00000
C869 C 0.80775 0.62475 0.28461 0.00000
C870 C 0.78804 0.63818 0.34681 0.00000
C871 C 0.78708 0.63735 0.39477 0.00000
C872 C 0.80772 0.61982 0.37103 0.00000
H873 H 0.20780 0.80068 0.00757 0.00000
H874 H 0.19880 0.83630 0.09880 0.00000
H875 H 0.19095 0.81754 0.17655 0.00000
C876 C 0.19233 0.77572 0.17492 0.00000
H877 H 0.20554 0.78013 0.08303 0.00000
H878 H 0.19393 0.78128 0.20767 0.00000
H879 H 0.20283 0.76847 0.17055 0.00000
N880 N 0.20401 0.80943 0.07434 0.00000
N881 N 0.19748 0.79338 0.14149 0.00000
H882 H 0.20235 0.82186 0.01001 0.00000
C883 C 0.21095 0.81419 0.02492 0.00000
C884 C 0.19913 0.82266 0.10560 0.00000
C885 C 0.19490 0.81248 0.14798 0.00000
C886 C 0.20292 0.79181 0.09664 0.00000
H887 H 0.61858 0.83519 0.86426 0.00000
H888 H 0.61924 0.78119 0.84210 0.00000
H889 H 0.61813 0.77458 0.75528 0.00000
C890 C 0.61805 0.80967 0.69843 0.00000
H891 H 0.62263 0.83477 0.77570 0.00000
H892 H 0.62274 0.79978 0.67952 0.00000
H893 H 0.62761 0.82440 0.68984 0.00000
N894 N 0.62125 0.81175 0.82351 0.00000
N895 N 0.62053 0.80612 0.74870 0.00000
H896 H 0.61416 0.81348 0.89269 0.00000
C897 C 0.62362 0.82320 0.86841 0.00000
C898 C 0.61976 0.79105 0.81771 0.00000
C899 C 0.61921 0.78746 0.77042 0.00000
C900 C 0.62168 0.82060 0.78145 0.00000
H901 H 0.41091 0.19509 0.72369 0.00000
H902 H 0.36105 0.14547 0.71637 0.00000
H903 H 0.34058 0.13967 0.79269 0.00000
C904 C 0.35966 0.17237 0.86150 0.00000
H905 H 0.39103 0.19587 0.79954 0.00000
H906 H 0.34405 0.16413 0.86907 0.00000
H907 H 0.36255 0.18761 0.86710 0.00000
N908 N 0.38162 0.17413 0.74630 0.00000
N909 N 0.36382 0.16923 0.81185 0.00000
H910 H 0.40155 0.17415 0.69162 0.00000
C911 C 0.39746 0.18484 0.70903 0.00000
C912 C 0.36443 0.15479 0.74278 0.00000
C913 C 0.35324 0.15166 0.78430 0.00000
C914 C 0.38099 0.18260 0.78827 0.00000
loop_
_geom_bond_atom_site_label_1
_geom_bond_atom_site_label_2
_geom_bond_distance
_geom_bond_site_symmetry_2
_ccdc_geom_bond_type
C0 C1 1.365 . A
C0 C5 1.409 . A
C0 P11 1.828 . S
C1 C2 1.402 . A
C1 H19 0.951 . S
C2 C3 1.383 . A
C2 H20 0.949 . S
C3 C4 1.364 . A
C4 C5 1.362 . A
C4 H21 0.950 . S
C5 H22 0.951 . S
C6 C7 1.386 . A
C6 P11 1.847 . S
C6 C12 1.369 . A
C7 C8 1.379 . A
C7 H23 0.950 . S
C8 C9 1.403 . A
C8 H24 0.950 . S
C9 C10 1.393 . A
C10 C12 1.389 . A
C10 H25 0.949 . S
P11 C13 1.843 . S
C12 H26 0.951 . S
C13 C14 1.394 . A
C13 C18 1.366 . A
C14 C15 1.378 . A
C14 H27 0.950 . S
C15 C16 1.372 . A
C15 H28 0.951 . S
C16 C17 1.387 . A
C17 C18 1.427 . A
C17 H29 0.949 . S
C18 H30 0.951 . S
C31 C32 1.365 . A
C31 C36 1.409 . A
C31 P42 1.828 . S
C32 C33 1.402 . A
C32 H50 0.951 . S
C33 C34 1.383 . A
C33 H51 0.949 . S
C34 C35 1.364 . A
C35 C36 1.362 . A
C35 H52 0.950 . S
C36 H53 0.951 . S
C37 C38 1.386 . A
C37 P42 1.847 . S
C37 C43 1.369 . A
C38 C39 1.379 . A
C38 H54 0.950 . S
C39 C40 1.403 . A
C39 H55 0.950 . S
C40 C41 1.393 . A
C41 C43 1.389 . A
C41 H56 0.949 . S
P42 C44 1.843 . S
C43 H57 0.951 . S
C44 C45 1.394 . A
C44 C49 1.366 . A
C45 C46 1.378 . A
C45 H58 0.950 . S
C46 C47 1.372 . A
C46 H59 0.951 . S
C47 C48 1.387 . A
C48 C49 1.427 . A
C48 H60 0.949 . S
C49 H61 0.951 . S
C62 C63 1.365 . A
C62 C67 1.409 . A
C62 P73 1.828 . S
C63 C64 1.402 . A
C63 H81 0.951 . S
C64 C65 1.383 . A
C64 H82 0.949 . S
C65 C66 1.364 . A
C66 C67 1.362 . A
C66 H83 0.950 . S
C67 H84 0.951 . S
C68 C69 1.386 . A
C68 P73 1.847 . S
C68 C74 1.369 . A
C69 C70 1.379 . A
C69 H85 0.950 . S
C70 C71 1.403 . A
C70 H86 0.950 . S
C71 C72 1.393 . A
C72 C74 1.389 . A
C72 H87 0.949 . S
P73 C75 1.843 . S
C74 H88 0.951 . S
C75 C76 1.394 . A
C75 C80 1.366 . A
C76 C77 1.378 . A
C76 H89 0.950 . S
C77 C78 1.372 . A
C77 H90 0.951 . S
C78 C79 1.387 . A
C79 C80 1.427 . A
C79 H91 0.949 . S
C80 H92 0.951 . S
C93 C94 1.365 . A
C93 C98 1.409 . A
C93 P104 1.828 . S
C94 C95 1.402 . A
C94 H112 0.951 . S
C95 C96 1.383 . A
C95 H113 0.949 . S
C96 C97 1.359 1_554 A
C97 C98 1.359 1_556 A
C97 H114 0.958 . S
C98 H115 0.945 1_554 S
C99 C100 1.386 . A
C99 P104 1.847 . S
C99 C105 1.369 . A
C100 C101 1.379 . A
C100 H116 0.950 . S
C101 C102 1.403 . A
C101 H117 0.950 . S
C102 C103 1.393 . A
C103 C105 1.389 . A
C103 H118 0.949 1_554 S
P104 C106 1.843 . S
C105 H119 0.951 1_554 S
C106 C107 1.394 . A
C106 C111 1.366 1_554 A
C107 C108 1.378 . A
C107 H120 0.950 . S
C108 C109 1.372 1_554 A
C108 H121 0.951 . S
C109 C110 1.387 . A
C110 C111 1.427 . A
C110 H122 0.949 . S
C111 H123 0.951 . S
C124 C125 1.365 . A
C124 C129 1.409 . A
C124 P135 1.828 . S
C125 C126 1.402 . A
C125 H143 0.951 . S
C126 C127 1.383 . A
C126 H144 0.949 . S
C127 C128 1.365 . A
C128 C129 1.363 . A
C128 H145 0.948 1_554 S
C129 H146 0.945 1_554 S
C130 C131 1.386 . A
C130 P135 1.847 . S
C130 C136 1.369 . A
C131 C132 1.379 . A
C131 H147 0.950 . S
C132 C133 1.403 . A
C132 H148 0.950 . S
C133 C134 1.406 . A
C134 C136 1.392 . A
C134 H149 0.934 1_554 S
P135 C137 1.843 . S
C136 H150 0.951 1_554 S
C137 C138 1.394 . A
C137 C142 1.366 1_554 A
C138 C139 1.378 . A
C138 H151 0.950 . S
C139 C140 1.372 1_554 A
C139 H152 0.951 . S
C140 C141 1.387 . A
C141 C142 1.427 . A
C141 H153 0.949 . S
C142 H154 0.951 . S
C155 C156 1.365 . A
C155 C160 1.409 . A
C155 P166 1.828 . S
C156 C157 1.402 . A
C156 H174 0.951 . S
C157 C158 1.383 . A
C157 H175 0.949 . S
C158 C159 1.364 . A
C159 C160 1.362 . A
C159 H176 0.950 . S
C160 H177 0.951 . S
C161 C162 1.386 . A
C161 P166 1.847 . S
C161 C167 1.369 . A
C162 C163 1.379 . A
C162 H178 0.950 . S
C163 C164 1.403 . A
C163 H179 0.950 . S
C164 C165 1.393 . A
C165 C167 1.389 . A
C165 H180 0.949 . S
P166 C168 1.843 . S
C167 H181 0.951 . S
C168 C169 1.394 . A
C168 C173 1.366 . A
C169 C170 1.378 . A
C169 H182 0.950 . S
C170 C171 1.372 . A
C170 H183 0.951 . S
C171 C172 1.387 . A
C172 C173 1.427 . A
C172 H184 0.949 . S
C173 H185 0.951 . S
C186 C187 1.365 . A
C186 C191 1.409 . A
C186 P197 1.828 . S
C187 C188 1.402 . A
C187 H205 0.951 . S
C188 C189 1.383 . A
C188 H206 0.949 . S
C189 C190 1.364 . A
C190 C191 1.362 . A
C190 H207 0.950 . S
C191 H208 0.951 . S
C192 C193 1.386 . A
C192 P197 1.847 . S
C192 C198 1.369 . A
C193 C194 1.379 . A
C193 H209 0.950 . S
C194 C195 1.403 . A
C194 H210 0.950 . S
C195 C196 1.393 . A
C196 C198 1.389 . A
C196 H211 0.949 . S
P197 C199 1.843 . S
C198 H212 0.951 . S
C199 C200 1.394 . A
C199 C204 1.366 . A
C200 C201 1.378 . A
C200 H213 0.950 . S
C201 C202 1.372 . A
C201 H214 0.951 . S
C202 C203 1.387 . A
C203 C204 1.427 . A
C203 H215 0.949 . S
C204 H216 0.951 . S
C217 C218 1.365 . A
C217 C222 1.409 . A
C217 P228 1.828 . S
C218 C219 1.402 . A
C218 H236 0.951 . S
C219 C220 1.383 . A
C219 H237 0.949 . S
C220 C221 1.364 . A
C221 C222 1.362 . A
C221 H238 0.950 . S
C222 H239 0.951 . S
C223 C224 1.386 . A
C223 P228 1.847 . S
C223 C229 1.369 . A
C224 C225 1.379 . A
C224 H240 0.950 . S
C225 C226 1.403 . A
C225 H241 0.950 . S
C226 C227 1.393 . A
C227 C229 1.389 . A
C227 H242 0.949 . S
P228 C230 1.843 . S
C229 H243 0.951 . S
C230 C231 1.394 . A
C230 C235 1.366 . A
C231 C232 1.378 . A
C231 H244 0.950 . S
C232 C233 1.372 . A
C232 H245 0.951 . S
C233 C234 1.387 . A
C234 C235 1.427 . A
C234 H246 0.949 . S
C235 H247 0.951 . S
C248 C249 1.365 . A
C248 C253 1.409 . A
C248 P259 1.828 . S
C249 C250 1.402 . A
C249 H267 0.951 . S
C250 C251 1.383 . A
C250 H268 0.949 . S
C251 C252 1.364 . A
C252 C253 1.362 . A
C252 H269 0.950 . S
C253 H270 0.951 . S
C254 C255 1.386 . A
C254 P259 1.847 1_554 S
C254 C260 1.369 . A
C255 C256 1.379 . A
C255 H271 0.950 1_554 S
C256 C257 1.403 . A
C256 H272 0.950 . S
C257 C258 1.393 . A
C258 C260 1.389 . A
C258 H273 0.949 . S
P259 C261 1.843 . S
C260 H274 0.951 . S
C261 C262 1.394 . A
C261 C266 1.366 . A
C262 C263 1.378 . A
C262 H275 0.950 . S
C263 C264 1.372 . A
C263 H276 0.951 . S
C264 C265 1.387 . A
C265 C266 1.427 . A
C265 H277 0.949 . S
C266 H278 0.951 . S
C279 C280 1.365 . A
C279 C284 1.409 . A
C279 P290 1.828 . S
C280 C281 1.402 . A
C280 H298 0.951 . S
C281 C282 1.383 . A
C281 H299 0.949 . S
C282 C283 1.364 . A
C283 C284 1.362 . A
C283 H300 0.950 . S
C284 H301 0.951 . S
C285 C286 1.386 . A
C285 P290 1.847 . S
C285 C291 1.369 . A
C286 C287 1.379 . A
C286 H302 0.950 . S
C287 C288 1.403 . A
C287 H303 0.950 . S
C288 C289 1.393 . A
C289 C291 1.389 . A
C289 H304 0.949 . S
P290 C292 1.843 . S
C291 H305 0.951 . S
C292 C293 1.394 . A
C292 C297 1.366 . A
C293 C294 1.378 . A
C293 H306 0.950 . S
C294 C295 1.372 . A
C294 H307 0.951 . S
C295 C296 1.387 . A
C296 C297 1.427 . A
C296 H308 0.949 . S
C297 H309 0.951 . S
C310 C311 1.365 . A
C310 C315 1.409 . A
C310 P321 1.828 . S
C311 C312 1.402 . A
C311 H329 0.951 . S
C312 C313 1.383 . A
C312 H330 0.949 . S
C313 C314 1.364 . A
C314 C315 1.362 . A
C314 H331 0.950 . S
C315 H332 0.951 . S
C316 C317 1.386 . A
C316 P321 1.847 . S
C316 C322 1.369 . A
C317 C318 1.379 . A
C317 H333 0.950 . S
C318 C319 1.403 . A
C318 H334 0.950 . S
C319 C320 1.393 . A
C320 C322 1.389 . A
C320 H335 0.949 . S
P321 C323 1.843 . S
C322 H336 0.951 . S
C323 C324 1.394 . A
C323 C328 1.366 . A
C324 C325 1.378 . A
C324 H337 0.950 . S
C325 C326 1.372 . A
C325 H338 0.951 . S
C326 C327 1.387 . A
C327 C328 1.427 . A
C327 H339 0.949 . S
C328 H340 0.951 . S
C341 C342 1.365 . A
C341 C346 1.409 . A
C341 P352 1.828 . S
C342 C343 1.402 . A
C342 H360 0.951 . S
C343 C344 1.383 . A
C343 H361 0.949 . S
C344 C345 1.364 . A
C345 C346 1.362 . A
C345 H362 0.950 . S
C346 H363 0.951 . S
C347 C348 1.386 . A
C347 P352 1.847 1_554 S
C347 C353 1.369 . A
C348 C349 1.379 . A
C348 H364 0.950 1_554 S
C349 C350 1.403 . A
C349 H365 0.950 . S
C350 C351 1.393 . A
C351 C353 1.389 . A
C351 H366 0.949 . S
P352 C354 1.843 . S
C353 H367 0.951 . S
C354 C355 1.394 . A
C354 C359 1.366 . A
C355 C356 1.378 . A
C355 H368 0.950 . S
C356 C357 1.372 . A
C356 H369 0.951 . S
C357 C358 1.387 . A
C358 C359 1.427 . A
C358 H370 0.949 . S
C359 H371 0.951 . S
H372 C388 0.970 . S
H373 C388 0.969 . S
H374 C394 0.960 . S
H375 C394 0.959 . S
H376 C394 0.960 . S
H377 C395 0.970 . S
H378 C395 0.969 . S
H379 C396 0.960 . S
H380 C396 0.960 . S
H381 C396 0.959 . S
H382 C397 0.960 . S
H383 C397 0.959 . S
H384 C397 0.960 . S
C385 C386 1.402 . A
C385 C387 1.390 . A
C385 C396 1.514 . S
C386 C391 1.396 . A
C386 C395 1.509 . S
C387 C388 1.511 . S
C387 C390 1.389 . A
C389 C390 1.396 . A
C389 C391 1.398 . A
C389 C398 1.498 . S
C390 C394 1.523 . S
C391 C397 1.533 . S
H392 C398 0.970 . S
H393 C398 0.971 . S
H399 C415 0.970 . S
H400 C415 0.969 . S
H401 C421 0.960 . S
H402 C421 0.959 . S
H403 C421 0.960 . S
H404 C422 0.970 . S
H405 C422 0.969 . S
H406 C423 0.960 . S
H407 C423 0.960 . S
H408 C423 0.959 . S
H409 C424 0.960 . S
H410 C424 0.959 . S
H411 C424 0.960 . S
C412 C413 1.402 . A
C412 C414 1.390 . A
C412 C423 1.514 . S
C413 C418 1.396 . A
C413 C422 1.509 . S
C414 C415 1.511 . S
C414 C417 1.389 . A
C416 C417 1.396 . A
C416 C418 1.398 . A
C416 C425 1.498 . S
C417 C421 1.523 . S
C418 C424 1.533 . S
H419 C425 0.970 . S
H420 C425 0.971 . S
H426 C442 0.970 . S
H427 C442 0.969 . S
H428 C448 0.960 . S
H429 C448 0.959 . S
H430 C448 0.960 . S
H431 C449 0.970 . S
H432 C449 0.969 . S
H433 C450 0.960 . S
H434 C450 0.960 . S
H435 C450 0.959 . S
H436 C451 0.960 . S
H437 C451 0.959 . S
H438 C451 0.960 . S
C439 C440 1.402 . A
C439 C441 1.390 . A
C439 C450 1.514 . S
C440 C445 1.396 . A
C440 C449 1.509 . S
C441 C442 1.511 . S
C441 C444 1.389 . A
C443 C444 1.396 . A
C443 C445 1.398 . A
C443 C452 1.498 . S
C444 C448 1.523 . S
C445 C451 1.533 . S
H446 C452 0.970 . S
H447 C452 0.971 . S
H453 C469 0.970 . S
H454 C469 0.969 . S
H455 C475 0.960 . S
H456 C475 0.959 . S
H457 C475 0.960 . S
H458 C476 0.970 . S
H459 C476 0.969 . S
H460 C477 0.960 . S
H461 C477 0.960 . S
H462 C477 0.959 . S
H463 C478 0.960 . S
H464 C478 0.959 . S
H465 C478 0.960 . S
C466 C467 1.402 . A
C466 C468 1.390 . A
C466 C477 1.514 . S
C467 C472 1.396 . A
C467 C476 1.509 . S
C468 C469 1.511 . S
C468 C471 1.389 . A
C470 C471 1.396 . A
C470 C472 1.398 . A
C470 C479 1.498 . S
C471 C475 1.523 . S
C472 C478 1.533 . S
H473 C479 0.970 . S
H474 C479 0.971 . S
H480 C496 0.970 . S
H481 C496 0.969 . S
H482 C502 0.960 . S
H483 C502 0.959 . S
H484 C502 0.960 . S
H485 C503 0.970 . S
H486 C503 0.969 1_556 S
H487 C504 0.960 . S
H488 C504 0.960 . S
H489 C504 0.959 . S
H490 C505 0.960 1_554 S
H491 C505 0.959 . S
H492 C505 0.960 . S
C493 C494 1.402 . A
C493 C495 1.390 . A
C493 C504 1.514 . S
C494 C499 1.396 1_554 A
C494 C503 1.509 . S
C495 C496 1.511 . S
C495 C498 1.389 1_554 A
C497 C498 1.396 . A
C497 C499 1.398 . A
C497 C506 1.498 . S
C498 C502 1.523 . S
C499 C505 1.533 . S
H500 C506 0.970 . S
H501 C506 0.971 . S
H507 C523 0.970 . S
H508 C523 0.969 1_556 S
H509 C529 0.960 1_554 S
H510 C529 0.959 1_554 S
H511 C529 0.960 . S
H512 C530 0.970 . S
H513 C530 0.969 . S
H514 C531 0.960 . S
H515 C531 0.960 . S
H516 C531 0.959 . S
H517 C532 0.960 . S
H518 C532 0.959 1_554 S
H519 C532 0.960 . S
C520 C521 1.402 . A
C520 C522 1.390 . A
C520 C531 1.514 . S
C521 C526 1.396 1_554 A
C521 C530 1.509 . S
C522 C523 1.511 . S
C522 C525 1.389 1_554 A
C524 C525 1.396 . A
C524 C526 1.398 . A
C524 C533 1.498 . S
C525 C529 1.523 . S
C526 C532 1.533 . S
H527 C533 0.970 . S
H528 C533 0.971 . S
N534 Rh541 1.956 1_545 S
N534 C545 1.360 . A
N534 C549 1.328 . A
H535 C544 0.930 . S
H536 C545 0.929 . S
H537 C546 0.930 . S
H538 C550 0.929 . S
H539 C551 0.930 . S
H540 C552 0.931 . S
Rh541 C547 1.892 . S
C542 C544 1.360 . A
C542 C546 1.357 . A
C543 C545 1.348 . A
C543 C551 1.370 . A
C544 C547 1.362 . A
C546 C550 1.358 . A
C547 C548 1.344 . A
C548 C549 1.485 1_565 S
C548 C550 1.351 . A
C549 C552 1.363 . A
C551 C552 1.372 . A
N553 Rh560 1.956 . S
N553 C564 1.360 . A
N553 C568 1.328 . A
H554 C563 0.930 . S
H555 C564 0.929 . S
H556 C565 0.930 . S
H557 C569 0.929 . S
H558 C570 0.930 . S
H559 C571 0.931 . S
Rh560 C566 1.892 . S
C561 C563 1.360 . A
C561 C565 1.357 . A
C562 C564 1.348 . A
C562 C570 1.370 . A
C563 C566 1.362 . A
C565 C569 1.358 . A
C566 C567 1.344 . A
C567 C568 1.485 . S
C567 C569 1.351 . A
C568 C571 1.363 . A
C570 C571 1.372 . A
N572 Rh579 1.956 1_655 S
N572 C583 1.360 . A
N572 C587 1.328 . A
H573 C582 0.930 . S
H574 C583 0.929 . S
H575 C584 0.930 1_554 S
H576 C588 0.930 1_554 S
H577 C589 0.927 1_554 S
H578 C590 0.931 . S
Rh579 C585 1.892 . S
C580 C582 1.360 . A
C580 C584 1.357 . A
C581 C583 1.348 . A
C581 C589 1.373 . A
C582 C585 1.362 . A
C584 C588 1.358 . A
C585 C586 1.344 . A
C586 C587 1.485 1_455 S
C586 C588 1.351 . A
C587 C590 1.363 1_556 A
C589 C590 1.372 1_556 A
C591 C594 1.395 . A
C591 H595 0.930 . S
C591 C603 1.364 . A
H592 C602 0.928 . S
C593 C594 1.365 . A
C593 H596 0.930 . S
C593 C601 1.388 . A
H597 N600 0.889 . S
H598 N600 0.890 . S
H599 N600 0.890 . S
N600 C603 1.480 . S
C601 C602 1.389 . A
C602 C603 1.376 . A
C604 C607 1.395 . A
C604 H608 0.930 . S
C604 C616 1.364 . A
H605 C615 0.928 . S
C606 C607 1.365 . A
C606 H609 0.930 . S
C606 C614 1.388 . A
H610 N613 0.889 . S
H611 N613 0.890 . S
H612 N613 0.890 . S
N613 C616 1.480 . S
C614 C615 1.389 . A
C615 C616 1.376 . A
C617 C620 1.395 . A
C617 H621 0.930 . S
C617 C629 1.364 . A
H618 C628 0.928 . S
C619 C620 1.365 . A
C619 H622 0.930 . S
C619 C627 1.388 . A
H623 N626 0.889 . S
H624 N626 0.890 . S
H625 N626 0.890 1_556 S
N626 C629 1.480 . S
C627 C628 1.389 . A
C628 C629 1.376 . A
C630 C633 1.395 . A
C630 H634 0.930 . S
C630 C642 1.364 . A
H631 C641 0.928 . S
C632 C633 1.365 . A
C632 H635 0.930 . S
C632 C640 1.388 . A
H636 N639 0.889 . S
H637 N639 0.890 . S
H638 N639 0.890 . S
N639 C642 1.480 . S
C640 C641 1.389 . A
C641 C642 1.376 . A
C643 C646 1.395 . A
C643 H647 0.930 . S
C643 C655 1.364 . A
H644 C654 0.928 . S
C645 C646 1.365 . A
C645 H648 0.930 . S
C645 C653 1.388 . A
H649 N652 0.889 . S
H650 N652 0.890 . S
H651 N652 0.890 . S
N652 C655 1.480 . S
C653 C654 1.389 . A
C654 C655 1.376 . A
C656 C659 1.395 . A
C656 H660 0.930 . S
C656 C668 1.364 . A
H657 C667 0.928 1_556 S
C658 C659 1.365 . A
C658 H661 0.930 . S
C658 C666 1.388 . A
H662 N665 0.889 1_554 S
H663 N665 0.890 . S
H664 N665 0.890 . S
N665 C668 1.480 1_556 S
C666 C667 1.389 . A
C667 C668 1.376 . A
C669 C672 1.395 . A
C669 H673 0.930 . S
C669 C681 1.364 . A
H670 C680 0.928 . S
C671 C672 1.365 . A
C671 H674 0.930 . S
C671 C679 1.388 . A
H675 N678 0.889 . S
H676 N678 0.890 . S
H677 N678 0.890 . S
N678 C681 1.480 . S
C679 C680 1.389 . A
C680 C681 1.376 . A
C682 C685 1.395 . A
C682 H686 0.930 . S
C682 C694 1.364 . A
H683 C693 0.928 . S
C684 C685 1.365 . A
C684 H687 0.930 1_554 S
C684 C692 1.388 . A
H688 N691 0.889 . S
H689 N691 0.890 . S
H690 N691 0.890 . S
N691 C694 1.480 . S
C692 C693 1.389 . A
C693 C694 1.376 . A
C695 C698 1.395 . A
C695 H699 0.930 . S
C695 C707 1.364 . A
H696 C706 0.928 . S
C697 C698 1.365 . A
C697 H700 0.930 . S
C697 C705 1.388 . A
H701 N704 0.889 . S
H702 N704 0.890 . S
H703 N704 0.890 . S
N704 C707 1.480 . S
C705 C706 1.389 . A
C706 C707 1.376 . A
C708 C711 1.395 . A
C708 H712 0.930 . S
C708 C720 1.364 . A
H709 C719 0.928 . S
C710 C711 1.365 . A
C710 H713 0.930 . S
C710 C718 1.388 . A
H714 N717 0.889 . S
H715 N717 0.890 . S
H716 N717 0.890 . S
N717 C720 1.480 . S
C718 C719 1.389 . A
C719 C720 1.376 . A
C721 C724 1.395 . A
C721 H725 0.930 . S
C721 C733 1.364 . A
H722 C732 0.928 . S
C723 C724 1.365 . A
C723 H726 0.930 . S
C723 C731 1.388 . A
H727 N730 0.889 . S
H728 N730 0.890 . S
H729 N730 0.890 . S
N730 C733 1.480 . S
C731 C732 1.389 . A
C732 C733 1.376 . A
C734 C737 1.395 . A
C734 H738 0.930 . S
C734 C746 1.364 . A
H735 C745 0.928 . S
C736 C737 1.365 . A
C736 H739 0.930 . S
C736 C744 1.388 . A
H740 N743 0.889 . S
H741 N743 0.890 . S
H742 N743 0.890 . S
N743 C746 1.480 . S
C744 C745 1.389 . A
C745 C746 1.376 . A
H747 C757 0.990 . S
H748 C758 0.950 . S
H749 C759 0.950 . S
C750 H752 0.990 . S
C750 H753 0.990 . S
C750 N755 1.459 . S
H751 C760 0.950 . S
N754 C757 1.465 . S
N754 C758 1.377 . A
N754 C760 1.325 . A
N755 C759 1.376 . A
N755 C760 1.330 . A
H756 C757 0.991 . S
C758 C759 1.356 . A
H761 C771 0.990 . S
H762 C772 0.950 . S
H763 C773 0.950 . S
C764 H766 0.990 . S
C764 H767 0.990 . S
C764 N769 1.459 . S
H765 C774 0.950 . S
N768 C771 1.465 . S
N768 C772 1.377 1_455 A
N768 C774 1.325 . A
N769 C773 1.376 . A
N769 C774 1.330 1_655 A
H770 C771 0.991 . S
C772 C773 1.356 . A
H775 C785 0.990 . S
H776 C786 0.950 . S
H777 C787 0.950 . S
C778 H780 0.990 . S
C778 H781 0.990 . S
C778 N783 1.459 . S
H779 C788 0.950 . S
N782 C785 1.465 . S
N782 C786 1.377 1_655 A
N782 C788 1.325 . A
N783 C787 1.376 . A
N783 C788 1.330 1_455 A
H784 C785 0.991 . S
C786 C787 1.356 . A
H789 C799 0.990 . S
H790 C800 0.950 . S
H791 C801 0.950 . S
C792 H794 0.990 . S
C792 H795 0.990 1_556 S
C792 N797 1.459 . S
H793 C802 0.950 1_554 S
N796 C799 1.465 . S
N796 C800 1.377 . A
N796 C802 1.325 . A
N797 C801 1.376 . A
N797 C802 1.330 1_545 A
H798 C799 0.991 . S
C800 C801 1.356 1_565 A
H803 C813 0.990 . S
H804 C814 0.950 . S
H805 C815 0.950 1_565 S
C806 H808 0.990 . S
C806 H809 0.990 . S
C806 N811 1.459 . S
H807 C816 0.950 . S
N810 C813 1.465 . S
N810 C814 1.377 1_556 A
N810 C816 1.325 . A
N811 C815 1.376 1_566 A
N811 C816 1.330 1_565 A
H812 C813 0.991 1_554 S
C814 C815 1.356 . A
H817 C827 0.990 . S
H818 C828 0.950 . S
H819 C829 0.950 . S
C820 H822 0.990 . S
C820 H823 0.990 . S
C820 N825 1.459 . S
H821 C830 0.950 . S
N824 C827 1.465 . S
N824 C828 1.377 . A
N824 C830 1.325 . A
N825 C829 1.376 . A
N825 C830 1.330 . A
H826 C827 0.991 . S
C828 C829 1.356 . A
H831 C841 0.990 . S
H832 C842 0.950 . S
H833 C843 0.950 . S
C834 H836 0.990 . S
C834 H837 0.990 . S
C834 N839 1.459 . S
H835 C844 0.950 . S
N838 C841 1.465 . S
N838 C842 1.377 . A
N838 C844 1.325 . A
N839 C843 1.376 . A
N839 C844 1.330 . A
H840 C841 0.991 . S
C842 C843 1.356 . A
H845 C855 0.990 . S
H846 C856 0.950 . S
H847 C857 0.950 . S
C848 H850 0.990 . S
C848 H851 0.990 . S
C848 N853 1.459 . S
H849 C858 0.950 . S
N852 C855 1.465 . S
N852 C856 1.377 . A
N852 C858 1.325 . A
N853 C857 1.376 . A
N853 C858 1.330 . A
H854 C855 0.991 . S
C856 C857 1.356 . A
H859 C869 0.990 . S
H860 C870 0.950 . S
H861 C871 0.950 . S
C862 H864 0.990 . S
C862 H865 0.990 . S
C862 N867 1.459 . S
H863 C872 0.950 . S
N866 C869 1.465 . S
N866 C870 1.377 . A
N866 C872 1.325 . A
N867 C871 1.376 . A
N867 C872 1.330 . A
H868 C869 0.991 . S
C870 C871 1.356 . A
H873 C883 0.990 . S
H874 C884 0.950 . S
H875 C885 0.950 . S
C876 H878 0.990 . S
C876 H879 0.990 . S
C876 N881 1.459 . S
H877 C886 0.950 . S
N880 C883 1.465 . S
N880 C884 1.377 . A
N880 C886 1.325 . A
N881 C885 1.376 . A
N881 C886 1.330 . A
H882 C883 0.991 . S
C884 C885 1.356 . A
H887 C897 0.990 . S
H888 C898 0.950 . S
H889 C899 0.950 . S
C890 H892 0.990 . S
C890 H893 0.990 . S
C890 N895 1.459 . S
H891 C900 0.950 . S
N894 C897 1.465 . S
N894 C898 1.377 . A
N894 C900 1.325 . A
N895 C899 1.376 . A
N895 C900 1.330 . A
H896 C897 0.991 . S
C898 C899 1.356 . A
H901 C911 0.990 . S
H902 C912 0.950 . S
H903 C913 0.950 . S
C904 H906 0.990 . S
C904 H907 0.990 . S
C904 N909 1.459 . S
H905 C914 0.950 . S
N908 C911 1.465 . S
N908 C912 1.377 . A
N908 C914 1.325 . A
N909 C913 1.376 . A
N909 C914 1.330 . A
H910 C911 0.991 . S
C912 C913 1.356 . A
C542 C398 1.378 . S
C543 C452 1.344 . S
C561 C479 1.349 . S
C562 C425 1.332 . S
C580 C506 1.381 . S
C581 C533 1.340 . S
C594 C257 1.656 . S
C601 C388 1.673 . S
C607 C288 1.685 . S
C614 C422 1.817 . S
C620 C133 1.978 . S
C627 C442 1.914 . S
C633 C164 1.545 . S
C640 C469 1.825 . S
C653 C415 1.851 . S
C646 C226 1.797 . S
C666 C496 1.845 . S
C659 C195 1.762 . S
C679 C395 1.860 . S
C672 C102 1.841 . S
C685 C71 1.489 . S
C692 C530 1.671 . S
C698 C319 1.857 . S
C705 C503 1.831 . S
C711 C350 1.613 . S
C718 C449 1.729 . S
C731 C476 1.857 . S
C724 C9 1.805 . S
C737 C40 1.849 . S
C744 C523 2.047 . S
C750 C233 0.974 . S
C757 C16 1.420 . S
C764 C47 1.398 . S
C771 C202 1.711 . S
C778 C326 1.357 . S
C785 C78 1.630 . S
C792 C357 0.925 . S
C799 C109 1.414 . S
C806 C264 1.269 . S
C813 C140 1.092 . S
C820 C171 1.606 . S
C827 C295 1.709 . S
C834 C3 1.301 . S
C841 C189 1.456 . S
C848 C34 1.436 . S
C855 C127 1.564 . S
C862 C282 1.596 . S
C869 C65 1.596 . S
C876 C313 1.524 . S
C883 C96 1.533 . S
C890 C158 1.509 . S
C897 C251 1.505 . S
C904 C344 1.730 . S
C911 C220 1.771 . S
