# Generated by pormake.
# Topology unb, (4)-cn, num edge types: 1
# Building blocks:
#     Node 0, Type 0, BuildingBlock: N346, # of connection points: 4
#     Node 1, Type 0, BuildingBlock: N346, # of connection points: 4
#     Node 2, Type 0, BuildingBlock: N346, # of connection points: 4
#     Node 3, Type 0, BuildingBlock: N346, # of connection points: 4
#     Node 4, Type 0, BuildingBlock: N346, # of connection points: 4
#     Node 5, Type 0, BuildingBlock: N346, # of connection points: 4
#     Node 6, Type 0, BuildingBlock: N346, # of connection points: 4
#     Node 7, Type 0, BuildingBlock: N346, # of connection points: 4
#     Node 8, Type 0, BuildingBlock: N346, # of connection points: 4
#     Node 9, Type 0, BuildingBlock: N346, # of connection points: 4
#     Node 10, Type 0, BuildingBlock: N346, # of connection points: 4
#     Node 11, Type 0, BuildingBlock: N346, # of connection points: 4
#     Node 12, Type 0, BuildingBlock: N346, # of connection points: 4
#     Node 13, Type 0, BuildingBlock: N346, # of connection points: 4
#     Node 14, Type 0, BuildingBlock: N346, # of connection points: 4
#     Node 15, Type 0, BuildingBlock: N346, # of connection points: 4
#     Node 16, Type 0, BuildingBlock: N346, # of connection points: 4
#     Node 17, Type 0, BuildingBlock: N346, # of connection points: 4
#     Edge 18, Type (0, 0), BuildingBlock: E192, # of connection points: 2
#     Edge 19, Type (0, 0), BuildingBlock: E192, # of connection points: 2
#     Edge 20, Type (0, 0), BuildingBlock: E192, # of connection points: 2
#     Edge 21, Type (0, 0), BuildingBlock: E192, # of connection points: 2
#     Edge 22, Type (0, 0), BuildingBlock: E192, # of connection points: 2
#     Edge 23, Type (0, 0), BuildingBlock: E192, # of connection points: 2
#     Edge 24, Type (0, 0), BuildingBlock: E192, # of connection points: 2
#     Edge 25, Type (0, 0), BuildingBlock: E192, # of connection points: 2
#     Edge 26, Type (0, 0), BuildingBlock: E192, # of connection points: 2
#     Edge 27, Type (0, 0), BuildingBlock: E192, # of connection points: 2
#     Edge 28, Type (0, 0), BuildingBlock: E192, # of connection points: 2
#     Edge 29, Type (0, 0), BuildingBlock: E192, # of connection points: 2
#     Edge 30, Type (0, 0), BuildingBlock: E192, # of connection points: 2
#     Edge 31, Type (0, 0), BuildingBlock: E192, # of connection points: 2
#     Edge 32, Type (0, 0), BuildingBlock: E192, # of connection points: 2
#     Edge 33, Type (0, 0), BuildingBlock: E192, # of connection points: 2
#     Edge 34, Type (0, 0), BuildingBlock: E192, # of connection points: 2
#     Edge 35, Type (0, 0), BuildingBlock: E192, # of connection points: 2
#     Edge 36, Type (0, 0), BuildingBlock: E192, # of connection points: 2
#     Edge 37, Type (0, 0), BuildingBlock: E192, # of connection points: 2
#     Edge 38, Type (0, 0), BuildingBlock: E192, # of connection points: 2
#     Edge 39, Type (0, 0), BuildingBlock: E192, # of connection points: 2
#     Edge 40, Type (0, 0), BuildingBlock: E192, # of connection points: 2
#     Edge 41, Type (0, 0), BuildingBlock: E192, # of connection points: 2
#     Edge 42, Type (0, 0), BuildingBlock: E192, # of connection points: 2
#     Edge 43, Type (0, 0), BuildingBlock: E192, # of connection points: 2
#     Edge 44, Type (0, 0), BuildingBlock: E192, # of connection points: 2
#     Edge 45, Type (0, 0), BuildingBlock: E192, # of connection points: 2
#     Edge 46, Type (0, 0), BuildingBlock: E192, # of connection points: 2
#     Edge 47, Type (0, 0), BuildingBlock: E192, # of connection points: 2
#     Edge 48, Type (0, 0), BuildingBlock: E192, # of connection points: 2
#     Edge 49, Type (0, 0), BuildingBlock: E192, # of connection points: 2
#     Edge 50, Type (0, 0), BuildingBlock: E192, # of connection points: 2
#     Edge 51, Type (0, 0), BuildingBlock: E192, # of connection points: 2
#     Edge 52, Type (0, 0), BuildingBlock: E192, # of connection points: 2
#     Edge 53, Type (0, 0), BuildingBlock: E192, # of connection points: 2
# Relax obj value: 0.093
# Max RMSD: 0.099
# Mean RMSD: 0.099
data_unb+N346+E192
_symmetry_space_group_name_H-M    P1
_symmetry_Int_Tables_number       1
_symmetry_cell_setting            triclinic
loop_
_symmetry_equiv_pos_as_xyz
'x, y, z'
_cell_length_a     49.200
_cell_length_b     49.200
_cell_length_c     23.213
_cell_angle_alpha  89.996
_cell_angle_beta   90.004
_cell_angle_gamma  119.973
loop_
_atom_site_label
_atom_site_type_symbol
_atom_site_fract_x
_atom_site_fract_y
_atom_site_fract_z
_atom_type_partial_charge
O0 O 0.42381 0.92769 0.72195 0.00000
Cd1 Cd 0.46618 0.99259 0.74661 0.00000
O2 O 0.45441 0.94725 0.59552 0.00000
Cd3 Cd 0.45328 0.91579 0.66538 0.00000
O4 O 0.48379 0.98296 0.66449 0.00000
C5 C 0.46457 0.97657 0.85752 0.00000
C6 C 0.51018 0.92124 0.67345 0.00000
O7 O 0.45190 0.99174 0.84110 0.00000
O8 O 0.47552 0.96532 0.82511 0.00000
C9 C 0.47088 0.97618 0.61475 0.00000
C10 C 0.40724 0.94011 0.70827 0.00000
O11 O 0.41727 0.97027 0.71362 0.00000
O12 O 0.49432 0.91153 0.62845 0.00000
O13 O 0.50299 0.93178 0.71393 0.00000
O14 O 0.16498 0.89839 0.05529 0.00000
Cd15 Cd 0.18751 0.85599 0.07996 0.00000
O16 O 0.15396 0.86779 0.92886 0.00000
Cd17 Cd 0.12363 0.86894 0.99871 0.00000
O18 O 0.16029 0.83839 0.99785 0.00000
C19 C 0.17311 0.85762 0.19087 0.00000
C20 C 0.07222 0.81205 0.00678 0.00000
O21 O 0.20095 0.87028 0.17446 0.00000
O22 O 0.15092 0.84668 0.15846 0.00000
C23 C 0.16641 0.85130 0.94810 0.00000
C24 C 0.19396 0.91495 0.04161 0.00000
O25 O 0.21408 0.90490 0.04697 0.00000
O26 O 0.07836 0.82791 0.96178 0.00000
O27 O 0.08994 0.81924 0.04727 0.00000
O28 O 0.09046 0.26103 0.05530 0.00000
Cd29 Cd 0.13283 0.32593 0.07995 0.00000
O30 O 0.12106 0.28059 0.92886 0.00000
Cd31 Cd 0.11993 0.24913 0.99873 0.00000
O32 O 0.15044 0.31630 0.99784 0.00000
C33 C 0.13122 0.30991 0.19086 0.00000
C34 C 0.17683 0.25459 0.00679 0.00000
O35 O 0.11854 0.32508 0.17445 0.00000
O36 O 0.14217 0.29866 0.15846 0.00000
C37 C 0.13753 0.30952 0.94809 0.00000
C38 C 0.07389 0.27345 0.04161 0.00000
O39 O 0.08392 0.30361 0.04697 0.00000
O40 O 0.16097 0.24487 0.96179 0.00000
O41 O 0.16964 0.26512 0.04728 0.00000
O42 O 0.75713 0.59436 0.38865 0.00000
Cd43 Cd 0.79950 0.65926 0.41330 0.00000
O44 O 0.78773 0.61392 0.26222 0.00000
Cd45 Cd 0.78660 0.58246 0.33208 0.00000
O46 O 0.81711 0.64964 0.33119 0.00000
C47 C 0.79789 0.64324 0.52422 0.00000
C48 C 0.84350 0.58792 0.34015 0.00000
O49 O 0.78521 0.65841 0.50780 0.00000
O50 O 0.80883 0.63199 0.49181 0.00000
C51 C 0.80420 0.64285 0.28144 0.00000
C52 C 0.74056 0.60678 0.37497 0.00000
O53 O 0.75059 0.63694 0.38032 0.00000
O54 O 0.82764 0.57820 0.29515 0.00000
O55 O 0.83631 0.59845 0.38063 0.00000
O56 O 0.26103 0.09046 0.94470 0.00000
Cd57 Cd 0.32593 0.13283 0.92005 0.00000
O58 O 0.28059 0.12105 0.07114 0.00000
Cd59 Cd 0.24913 0.11993 0.00127 0.00000
O60 O 0.31631 0.15044 0.00216 0.00000
C61 C 0.30991 0.13121 0.80914 0.00000
C62 C 0.25459 0.17683 0.99321 0.00000
O63 O 0.32508 0.11854 0.82555 0.00000
O64 O 0.29866 0.14216 0.84154 0.00000
C65 C 0.30952 0.13753 0.05191 0.00000
C66 C 0.27345 0.07389 0.95839 0.00000
O67 O 0.30361 0.08392 0.95303 0.00000
O68 O 0.24487 0.16097 0.03821 0.00000
O69 O 0.26512 0.16964 0.95272 0.00000
O70 O 0.89839 0.16498 0.94471 0.00000
Cd71 Cd 0.85600 0.18751 0.92004 0.00000
O72 O 0.86779 0.15395 0.07114 0.00000
Cd73 Cd 0.86894 0.12363 0.00129 0.00000
O74 O 0.83840 0.16029 0.00215 0.00000
C75 C 0.85762 0.17311 0.80913 0.00000
C76 C 0.81205 0.07221 0.99322 0.00000
O77 O 0.87028 0.20094 0.82554 0.00000
O78 O 0.84668 0.15092 0.84154 0.00000
C79 C 0.85131 0.16641 0.05190 0.00000
C80 C 0.91495 0.19395 0.95839 0.00000
O81 O 0.90490 0.21408 0.95303 0.00000
O82 O 0.82792 0.07836 0.03822 0.00000
O83 O 0.81924 0.08993 0.95273 0.00000
O84 O 0.72789 0.82392 0.05533 0.00000
Cd85 Cd 0.66298 0.80142 0.07998 0.00000
O86 O 0.70832 0.83496 0.92889 0.00000
Cd87 Cd 0.73977 0.86527 0.99875 0.00000
O88 O 0.67260 0.82864 0.99787 0.00000
C89 C 0.67900 0.81581 0.19089 0.00000
C90 C 0.73429 0.91671 0.00682 0.00000
O91 O 0.66384 0.78798 0.17448 0.00000
O92 O 0.69024 0.83800 0.15848 0.00000
C93 C 0.67939 0.82252 0.94812 0.00000
C94 C 0.71548 0.79494 0.04164 0.00000
O95 O 0.68532 0.77483 0.04700 0.00000
O96 O 0.74401 0.91056 0.96182 0.00000
O97 O 0.72376 0.89899 0.04730 0.00000
O98 O 0.82392 0.72789 0.94467 0.00000
Cd99 Cd 0.80142 0.66298 0.92002 0.00000
O100 O 0.83497 0.70831 0.07111 0.00000
Cd101 Cd 0.86528 0.73977 0.00125 0.00000
O102 O 0.82865 0.67260 0.00213 0.00000
C103 C 0.81581 0.67900 0.80911 0.00000
C104 C 0.91671 0.73428 0.99319 0.00000
O105 O 0.78798 0.66384 0.82552 0.00000
O106 O 0.83800 0.69024 0.84152 0.00000
C107 C 0.82252 0.67939 0.05188 0.00000
C108 C 0.79495 0.71548 0.95836 0.00000
O109 O 0.77483 0.68532 0.95300 0.00000
O110 O 0.91056 0.74401 0.03818 0.00000
O111 O 0.89899 0.72376 0.95270 0.00000
O112 O 0.15724 0.39456 0.61133 0.00000
Cd113 Cd 0.13474 0.32966 0.58668 0.00000
O114 O 0.16829 0.37499 0.73777 0.00000
Cd115 Cd 0.19860 0.40644 0.66791 0.00000
O116 O 0.16197 0.33927 0.66879 0.00000
C117 C 0.14913 0.34568 0.47577 0.00000
C118 C 0.25003 0.40096 0.65985 0.00000
O119 O 0.12130 0.33051 0.49218 0.00000
O120 O 0.17133 0.35692 0.50818 0.00000
C121 C 0.15585 0.34606 0.71854 0.00000
C122 C 0.12827 0.38215 0.62502 0.00000
O123 O 0.10815 0.35200 0.61966 0.00000
O124 O 0.24389 0.41068 0.70485 0.00000
O125 O 0.23232 0.39044 0.61936 0.00000
O126 O 0.59436 0.75713 0.61135 0.00000
Cd127 Cd 0.65927 0.79950 0.58670 0.00000
O128 O 0.61393 0.78772 0.73778 0.00000
Cd129 Cd 0.58247 0.78660 0.66792 0.00000
O130 O 0.64964 0.81711 0.66881 0.00000
C131 C 0.64325 0.79788 0.47578 0.00000
C132 C 0.58793 0.84350 0.65985 0.00000
O133 O 0.65842 0.78521 0.49220 0.00000
O134 O 0.63199 0.80883 0.50819 0.00000
C135 C 0.64285 0.80420 0.71856 0.00000
C136 C 0.60678 0.74056 0.62503 0.00000
O137 O 0.63694 0.75059 0.61968 0.00000
O138 O 0.57821 0.82763 0.70485 0.00000
O139 O 0.59846 0.83630 0.61937 0.00000
O140 O 0.23173 0.83164 0.61139 0.00000
Cd141 Cd 0.18933 0.85418 0.58672 0.00000
O142 O 0.20113 0.82062 0.73782 0.00000
Cd143 Cd 0.20227 0.79029 0.66797 0.00000
O144 O 0.17173 0.82696 0.66884 0.00000
C145 C 0.19096 0.83978 0.47581 0.00000
C146 C 0.14538 0.73888 0.65990 0.00000
O147 O 0.20362 0.86761 0.49222 0.00000
O148 O 0.18002 0.81759 0.50822 0.00000
C149 C 0.18464 0.83307 0.71859 0.00000
C150 C 0.24828 0.86062 0.62507 0.00000
O151 O 0.23824 0.88074 0.61971 0.00000
O152 O 0.16125 0.74502 0.70490 0.00000
O153 O 0.15257 0.75660 0.61941 0.00000
O154 O 0.39456 0.15724 0.38866 0.00000
Cd155 Cd 0.32966 0.13474 0.41332 0.00000
O156 O 0.37499 0.16829 0.26223 0.00000
Cd157 Cd 0.40644 0.19860 0.33209 0.00000
O158 O 0.33927 0.16197 0.33121 0.00000
C159 C 0.34568 0.14913 0.52423 0.00000
C160 C 0.40096 0.25003 0.34015 0.00000
O161 O 0.33052 0.12130 0.50782 0.00000
O162 O 0.35692 0.17133 0.49182 0.00000
C163 C 0.34606 0.15585 0.28146 0.00000
C164 C 0.38215 0.12827 0.37498 0.00000
O165 O 0.35200 0.10815 0.38034 0.00000
O166 O 0.41068 0.24389 0.29515 0.00000
O167 O 0.39044 0.23231 0.38064 0.00000
O168 O 0.83164 0.23172 0.38861 0.00000
Cd169 Cd 0.85418 0.18933 0.41328 0.00000
O170 O 0.82062 0.20112 0.26218 0.00000
Cd171 Cd 0.79030 0.20227 0.33203 0.00000
O172 O 0.82696 0.17173 0.33116 0.00000
C173 C 0.83978 0.19095 0.52419 0.00000
C174 C 0.73888 0.14538 0.34010 0.00000
O175 O 0.86761 0.20362 0.50778 0.00000
O176 O 0.81759 0.18001 0.49178 0.00000
C177 C 0.83308 0.18464 0.28141 0.00000
C178 C 0.86062 0.24828 0.37493 0.00000
O179 O 0.88075 0.23824 0.38029 0.00000
O180 O 0.74502 0.16124 0.29510 0.00000
O181 O 0.75660 0.15257 0.38059 0.00000
O182 O 0.92769 0.42381 0.27805 0.00000
Cd183 Cd 0.99259 0.46618 0.25339 0.00000
O184 O 0.94725 0.45441 0.40448 0.00000
Cd185 Cd 0.91579 0.45328 0.33462 0.00000
O186 O 0.98296 0.48379 0.33551 0.00000
C187 C 0.97657 0.46457 0.14248 0.00000
C188 C 0.92125 0.51018 0.32655 0.00000
O189 O 0.99174 0.45189 0.15890 0.00000
O190 O 0.96532 0.47552 0.17489 0.00000
C191 C 0.97618 0.47088 0.38525 0.00000
C192 C 0.94011 0.40724 0.29173 0.00000
O193 O 0.97027 0.41727 0.28638 0.00000
O194 O 0.91153 0.49432 0.37155 0.00000
O195 O 0.93178 0.50299 0.28607 0.00000
O196 O 0.56506 0.49831 0.27804 0.00000
Cd197 Cd 0.52266 0.52084 0.25337 0.00000
O198 O 0.53446 0.48728 0.40447 0.00000
Cd199 Cd 0.53561 0.45696 0.33462 0.00000
O200 O 0.50507 0.49361 0.33549 0.00000
C201 C 0.52429 0.50644 0.14246 0.00000
C202 C 0.47872 0.40554 0.32655 0.00000
O203 O 0.53695 0.53427 0.15888 0.00000
O204 O 0.51335 0.48425 0.17487 0.00000
C205 C 0.51797 0.49973 0.38524 0.00000
C206 C 0.58162 0.52728 0.29172 0.00000
O207 O 0.57157 0.54741 0.28636 0.00000
O208 O 0.49459 0.41168 0.37155 0.00000
O209 O 0.48591 0.42326 0.28606 0.00000
O210 O 0.49058 0.06120 0.27799 0.00000
Cd211 Cd 0.46808 0.99629 0.25334 0.00000
O212 O 0.50162 0.04162 0.40443 0.00000
Cd213 Cd 0.53194 0.07307 0.33457 0.00000
O214 O 0.49531 0.00590 0.33545 0.00000
C215 C 0.48247 0.01231 0.14243 0.00000
C216 C 0.58337 0.06759 0.32650 0.00000
O217 O 0.45464 0.99715 0.15884 0.00000
O218 O 0.50466 0.02355 0.17483 0.00000
C219 C 0.48918 0.01269 0.38520 0.00000
C220 C 0.46160 0.04878 0.29168 0.00000
O221 O 0.44149 0.01863 0.28632 0.00000
O222 O 0.57722 0.07732 0.37150 0.00000
O223 O 0.56565 0.05707 0.28602 0.00000
O224 O 0.06120 0.49057 0.72201 0.00000
Cd225 Cd 0.99629 0.46807 0.74666 0.00000
O226 O 0.04163 0.50162 0.59557 0.00000
Cd227 Cd 0.07308 0.53193 0.66543 0.00000
O228 O 0.00591 0.49530 0.66455 0.00000
C229 C 0.01231 0.48246 0.85757 0.00000
C230 C 0.06760 0.58336 0.67350 0.00000
O231 O 0.99715 0.45463 0.84116 0.00000
O232 O 0.02356 0.50466 0.82517 0.00000
C233 C 0.01270 0.48918 0.61480 0.00000
C234 C 0.04879 0.46160 0.70832 0.00000
O235 O 0.01863 0.44148 0.71368 0.00000
O236 O 0.07732 0.57722 0.62850 0.00000
O237 O 0.05707 0.56565 0.71398 0.00000
O238 O 0.49831 0.56506 0.72196 0.00000
Cd239 Cd 0.52084 0.52266 0.74663 0.00000
O240 O 0.48728 0.53446 0.59553 0.00000
Cd241 Cd 0.45696 0.53561 0.66538 0.00000
O242 O 0.49362 0.50506 0.66451 0.00000
C243 C 0.50644 0.52429 0.85754 0.00000
C244 C 0.40554 0.47872 0.67345 0.00000
O245 O 0.53427 0.53695 0.84113 0.00000
O246 O 0.48425 0.51335 0.82513 0.00000
C247 C 0.49973 0.51797 0.61476 0.00000
C248 C 0.52728 0.58161 0.70828 0.00000
O249 O 0.54741 0.57157 0.71364 0.00000
O250 O 0.41168 0.49458 0.62845 0.00000
O251 O 0.42326 0.48591 0.71394 0.00000
H252 H 0.48165 0.98455 0.10501 0.00000
H253 H 0.53089 0.05416 0.01311 0.00000
H254 H 0.50931 0.04413 0.91348 0.00000
C255 C 0.45340 0.98468 0.89862 0.00000
H256 H 0.45089 0.97133 0.01263 0.00000
H257 H 0.45559 0.99990 0.86731 0.00000
H258 H 0.43112 0.97319 0.91062 0.00000
N259 N 0.49167 0.01094 0.03307 0.00000
N260 N 0.47290 0.00249 0.94734 0.00000
H261 H 0.51583 0.01515 0.10608 0.00000
C262 C 0.49363 0.00714 0.09525 0.00000
C263 C 0.51215 0.03631 0.00010 0.00000
C264 C 0.50036 0.03089 0.94601 0.00000
C265 C 0.46812 0.99075 0.00010 0.00000
H266 H 0.16417 0.84096 0.43846 0.00000
H267 H 0.18353 0.79088 0.34675 0.00000
H268 H 0.19518 0.81228 0.24699 0.00000
C269 C 0.19247 0.86865 0.23188 0.00000
H270 H 0.18191 0.87154 0.34590 0.00000
H271 H 0.20473 0.86619 0.20055 0.00000
H272 H 0.20352 0.89095 0.24376 0.00000
N273 N 0.18018 0.83050 0.36653 0.00000
N274 N 0.19056 0.84910 0.28070 0.00000
H275 H 0.16012 0.80658 0.43970 0.00000
C276 C 0.17451 0.82872 0.42873 0.00000
C277 C 0.18468 0.80973 0.33379 0.00000
C278 C 0.19110 0.82142 0.27949 0.00000
C279 C 0.18381 0.85412 0.33372 0.00000
H280 H 0.16396 0.33173 0.43272 0.00000
H281 H 0.16598 0.39550 0.34320 0.00000
H282 H 0.14091 0.37377 0.24834 0.00000
C283 C 0.11656 0.30766 0.23619 0.00000
H284 H 0.13115 0.30242 0.34689 0.00000
H285 H 0.10684 0.31521 0.20776 0.00000
H286 H 0.09991 0.28740 0.25176 0.00000
N287 N 0.15216 0.34913 0.36444 0.00000
N288 N 0.13025 0.33039 0.28291 0.00000
H289 H 0.18214 0.36929 0.43096 0.00000
C290 C 0.16154 0.35016 0.42466 0.00000
C291 C 0.15583 0.37411 0.33178 0.00000
C292 C 0.14211 0.36228 0.28015 0.00000
C293 C 0.13667 0.32292 0.33421 0.00000
H294 H 0.82721 0.66102 0.76771 0.00000
H295 H 0.84214 0.72931 0.67635 0.00000
H296 H 0.81721 0.71033 0.58037 0.00000
C297 C 0.78347 0.64344 0.56854 0.00000
H298 H 0.79381 0.63529 0.68042 0.00000
H299 H 0.77660 0.65333 0.53916 0.00000
H300 H 0.76460 0.62466 0.58351 0.00000
N301 N 0.82092 0.68185 0.69803 0.00000
N302 N 0.79916 0.66552 0.61552 0.00000
H303 H 0.85041 0.69821 0.76610 0.00000
C304 C 0.82856 0.68134 0.75887 0.00000
C305 C 0.82931 0.70809 0.66486 0.00000
C306 C 0.81567 0.69776 0.61262 0.00000
C307 C 0.80272 0.65637 0.66750 0.00000
H308 H 0.32644 0.15931 0.56512 0.00000
H309 H 0.39578 0.17841 0.65692 0.00000
H310 H 0.37773 0.15364 0.75328 0.00000
C311 C 0.31096 0.11697 0.76515 0.00000
H312 H 0.30196 0.12589 0.65292 0.00000
H313 H 0.32154 0.11108 0.79482 0.00000
H314 H 0.29278 0.09748 0.75042 0.00000
N315 N 0.34824 0.15486 0.63519 0.00000
N316 N 0.33273 0.13325 0.71805 0.00000
H317 H 0.36329 0.18404 0.56660 0.00000
C318 C 0.34726 0.16190 0.57416 0.00000
C319 C 0.37471 0.16476 0.66847 0.00000
C320 C 0.36490 0.15121 0.72092 0.00000
C321 C 0.32311 0.13586 0.66587 0.00000
H322 H 0.87469 0.20311 0.76568 0.00000
H323 H 0.79116 0.17004 0.72257 0.00000
H324 H 0.78597 0.16006 0.61692 0.00000
C325 C 0.84338 0.17444 0.56042 0.00000
H326 H 0.87498 0.18854 0.66189 0.00000
H327 H 0.82507 0.16005 0.53665 0.00000
H328 H 0.85891 0.16727 0.55854 0.00000
N329 N 0.83799 0.18227 0.71091 0.00000
N330 N 0.83341 0.17332 0.61998 0.00000
H331 H 0.84313 0.20040 0.79090 0.00000
C332 C 0.85171 0.18915 0.76877 0.00000
C333 C 0.80725 0.17248 0.69691 0.00000
C334 C 0.80440 0.16697 0.63939 0.00000
C335 C 0.85343 0.18264 0.66389 0.00000
H336 H 0.69558 0.81131 0.24632 0.00000
H337 H 0.61313 0.74953 0.27631 0.00000
H338 H 0.59761 0.75808 0.37374 0.00000
C339 C 0.64518 0.81233 0.43220 0.00000
H340 H 0.68383 0.82962 0.33935 0.00000
H341 H 0.62427 0.80556 0.44906 0.00000
H342 H 0.65662 0.83551 0.42956 0.00000
N343 N 0.65492 0.79145 0.29098 0.00000
N344 N 0.64138 0.79898 0.37466 0.00000
H345 H 0.67014 0.77747 0.22241 0.00000
C346 C 0.67302 0.79754 0.23771 0.00000
C347 C 0.62529 0.76662 0.30140 0.00000
C348 C 0.61679 0.77131 0.35441 0.00000
C349 C 0.66426 0.81074 0.33571 0.00000
H350 H 0.95661 0.45758 0.08566 0.00000
H351 H 0.00679 0.42417 0.04247 0.00000
H352 H 0.03326 0.44793 0.94953 0.00000
C353 C 0.01976 0.49420 0.90500 0.00000
H354 H 0.98570 0.49044 0.99990 0.00000
H355 H 0.03915 0.49650 0.88752 0.00000
H356 H 0.02337 0.51543 0.91380 0.00000
N357 N 0.98982 0.45545 0.03795 0.00000
N358 N 0.01292 0.47614 0.95819 0.00000
H359 H 0.96055 0.42797 0.10078 0.00000
C360 C 0.97215 0.45065 0.09140 0.00000
C361 C 0.00595 0.44045 0.02201 0.00000
C362 C 0.02043 0.45343 0.97145 0.00000
C363 C 0.99429 0.47691 0.99887 0.00000
H364 H 0.48765 0.52279 0.91324 0.00000
H365 H 0.56870 0.57672 0.96581 0.00000
H366 H 0.57754 0.55610 0.05757 0.00000
C367 C 0.52538 0.49763 0.09407 0.00000
H368 H 0.49264 0.49308 0.99694 0.00000
H369 H 0.54497 0.50130 0.11298 0.00000
H370 H 0.51337 0.47529 0.08256 0.00000
N371 N 0.52534 0.53531 0.96423 0.00000
N372 N 0.53313 0.51740 0.04298 0.00000
H373 H 0.51533 0.55808 0.90279 0.00000
C374 C 0.51068 0.53632 0.90996 0.00000
C375 C 0.55462 0.55737 0.98380 0.00000
C376 C 0.55947 0.54612 0.03371 0.00000
C377 C 0.51271 0.51135 0.00010 0.00000
H378 H 0.46408 0.99770 0.60247 0.00000
H379 H 0.43760 0.92730 0.50933 0.00000
H380 H 0.46211 0.94387 0.41244 0.00000
C381 C 0.50396 0.01000 0.40104 0.00000
H382 H 0.49751 0.02002 0.51395 0.00000
H383 H 0.50806 0.99833 0.37076 0.00000
H384 H 0.52443 0.02687 0.41545 0.00000
N385 N 0.46524 0.97455 0.53150 0.00000
N386 N 0.48661 0.98875 0.44818 0.00000
H387 H 0.43670 0.96173 0.60094 0.00000
C388 C 0.45924 0.97613 0.59288 0.00000
C389 C 0.45270 0.94796 0.49784 0.00000
C390 C 0.46610 0.95696 0.44509 0.00000
C391 C 0.48566 0.99896 0.50077 0.00000
H392 H 0.18007 0.81155 0.74689 0.00000
H393 H 0.11632 0.82950 0.77641 0.00000
H394 H 0.12429 0.85393 0.87339 0.00000
C395 C 0.17947 0.86294 0.93179 0.00000
H396 H 0.19774 0.84220 0.83936 0.00000
H397 H 0.17204 0.87661 0.94838 0.00000
H398 H 0.20262 0.87534 0.92895 0.00000
N399 N 0.15909 0.83137 0.79113 0.00000
N400 N 0.16611 0.85275 0.87442 0.00000
H401 H 0.14585 0.80185 0.72309 0.00000
C402 C 0.16566 0.81956 0.73809 0.00000
C403 C 0.13360 0.83515 0.80143 0.00000
C404 C 0.13797 0.84853 0.85419 0.00000
C405 C 0.17846 0.84212 0.83569 0.00000
H406 H 0.16932 0.33097 0.93586 0.00000
H407 H 0.11395 0.35617 0.88265 0.00000
H408 H 0.10885 0.34986 0.77612 0.00000
C409 C 0.14424 0.32402 0.72624 0.00000
H410 H 0.16287 0.31534 0.83138 0.00000
H411 H 0.12739 0.32159 0.69979 0.00000
H412 H 0.14504 0.30432 0.72532 0.00000
N413 N 0.14177 0.33526 0.87631 0.00000
N414 N 0.13707 0.32952 0.78459 0.00000
H415 H 0.15397 0.35114 0.95783 0.00000
C416 C 0.14986 0.33222 0.93577 0.00000
C417 C 0.12309 0.34722 0.85875 0.00000
C418 C 0.12025 0.34372 0.80075 0.00000
C419 C 0.15000 0.32470 0.83093 0.00000
H420 H 0.84813 0.68542 0.07572 0.00000
H421 H 0.78902 0.60184 0.10431 0.00000
H422 H 0.77054 0.59614 0.20576 0.00000
C423 C 0.79750 0.65378 0.26904 0.00000
H424 H 0.82837 0.68768 0.17455 0.00000
H425 H 0.77794 0.63764 0.28766 0.00000
H426 H 0.79762 0.67394 0.27015 0.00000
N427 N 0.81433 0.64984 0.12207 0.00000
N428 N 0.79812 0.64493 0.20929 0.00000
H429 H 0.83672 0.65160 0.04800 0.00000
C430 C 0.82949 0.66474 0.06761 0.00000
C431 C 0.79453 0.61827 0.13135 0.00000
C432 C 0.78441 0.61515 0.18656 0.00000
C433 C 0.81623 0.66558 0.16963 0.00000
H434 H 0.36497 0.15977 0.25228 0.00000
H435 H 0.32530 0.20359 0.20513 0.00000
H436 H 0.29685 0.18095 0.11321 0.00000
C437 C 0.30077 0.12805 0.07254 0.00000
H438 H 0.33260 0.12792 0.16796 0.00000
H439 H 0.28279 0.12862 0.05466 0.00000
H440 H 0.29386 0.10602 0.08280 0.00000
N441 N 0.33516 0.16695 0.20344 0.00000
N442 N 0.31034 0.14725 0.12456 0.00000
H443 H 0.36664 0.19255 0.26507 0.00000
C444 C 0.35219 0.17002 0.25704 0.00000
C445 C 0.32314 0.18558 0.18591 0.00000
C446 C 0.30757 0.17321 0.13591 0.00000
C447 C 0.32721 0.14394 0.16584 0.00000
H448 H 0.82394 0.14333 0.07134 0.00000
H449 H 0.83185 0.22084 0.10591 0.00000
H450 H 0.84421 0.23245 0.21008 0.00000
C451 C 0.85064 0.18548 0.27149 0.00000
H452 H 0.84345 0.15235 0.17361 0.00000
H453 H 0.86084 0.20562 0.29275 0.00000
H454 H 0.86450 0.17630 0.27379 0.00000
N455 N 0.83557 0.18104 0.12172 0.00000
N456 N 0.84656 0.19125 0.21134 0.00000
H457 H 0.81470 0.16747 0.04384 0.00000
C458 C 0.83119 0.16586 0.06552 0.00000
C459 C 0.83573 0.20862 0.13279 0.00000
C460 C 0.84254 0.21499 0.18950 0.00000
C461 C 0.84214 0.17089 0.16967 0.00000
H462 H 0.67291 0.79748 0.92962 0.00000
H463 H 0.72394 0.86942 0.84446 0.00000
H464 H 0.69776 0.86745 0.75154 0.00000
C465 C 0.63690 0.81322 0.73798 0.00000
H466 H 0.63825 0.79300 0.84620 0.00000
H467 H 0.63962 0.83013 0.71141 0.00000
H468 H 0.61548 0.80348 0.75429 0.00000
N469 N 0.68253 0.82806 0.86423 0.00000
N470 N 0.65986 0.82657 0.78441 0.00000
H471 H 0.70880 0.82503 0.92810 0.00000
C472 C 0.68684 0.82025 0.92317 0.00000
C473 C 0.70347 0.85388 0.83289 0.00000
C474 C 0.68919 0.85286 0.78233 0.00000
C475 C 0.65634 0.81183 0.83425 0.00000
H476 H 0.99990 0.46169 0.59897 0.00000
H477 H 0.06175 0.52517 0.50931 0.00000
H478 H 0.03900 0.52758 0.41495 0.00000
C479 C 0.97334 0.48367 0.40336 0.00000
H480 H 0.96936 0.46385 0.51380 0.00000
H481 H 0.98011 0.50093 0.37510 0.00000
H482 H 0.95283 0.47912 0.41928 0.00000
N483 N 0.01596 0.49114 0.53088 0.00000
N484 N 0.99633 0.49348 0.44979 0.00000
H485 H 0.03733 0.48241 0.59681 0.00000
C486 C 0.01765 0.48292 0.59091 0.00000
C487 C 0.04037 0.51321 0.49811 0.00000
C488 C 0.02798 0.51458 0.44676 0.00000
C489 C 0.98955 0.47947 0.50098 0.00000
H490 H 0.51384 0.47844 0.41364 0.00000
H491 H 0.44924 0.49513 0.44332 0.00000
H492 H 0.45700 0.51965 0.54017 0.00000
C493 C 0.51260 0.52967 0.59834 0.00000
H494 H 0.53126 0.50929 0.50593 0.00000
H495 H 0.50488 0.54311 0.61490 0.00000
H496 H 0.53573 0.54236 0.59537 0.00000
N497 N 0.49238 0.49778 0.45788 0.00000
N498 N 0.49921 0.51923 0.54105 0.00000
H499 H 0.47945 0.46817 0.39000 0.00000
C500 C 0.49914 0.48610 0.40486 0.00000
C501 C 0.46662 0.50108 0.46825 0.00000
C502 C 0.47087 0.51451 0.52095 0.00000
C503 C 0.51180 0.50885 0.50233 0.00000
H504 H 0.38705 0.93417 0.64993 0.00000
H505 H 0.33525 0.95017 0.74372 0.00000
H506 H 0.27973 0.90810 0.73015 0.00000
C507 C 0.27160 0.85972 0.65159 0.00000
H508 H 0.33452 0.88527 0.63829 0.00000
H509 H 0.25305 0.85237 0.67691 0.00000
H510 H 0.27636 0.84248 0.64780 0.00000
N511 N 0.34613 0.92335 0.68879 0.00000
N512 N 0.29831 0.88694 0.67763 0.00000
H513 H 0.38849 0.96288 0.68505 0.00000
C514 C 0.38046 0.93998 0.68598 0.00000
C515 C 0.32799 0.93182 0.72088 0.00000
C516 C 0.29776 0.90887 0.71361 0.00000
C517 C 0.32780 0.89619 0.66295 0.00000
H518 H 0.24628 0.05174 0.00532 0.00000
H519 H 0.29990 0.01945 0.02406 0.00000
H520 H 0.26891 0.96111 0.02143 0.00000
C521 C 0.20317 0.93594 0.00177 0.00000
H522 H 0.21068 0.99406 0.98738 0.00000
H523 H 0.20944 0.92018 0.99267 0.00000
H524 H 0.18844 0.93478 0.97154 0.00000
N525 N 0.25748 0.01746 0.00475 0.00000
N526 N 0.23087 0.96718 0.00186 0.00000
H527 H 0.28113 0.06317 0.02776 0.00000
C528 C 0.26531 0.05020 0.99839 0.00000
C529 C 0.27809 0.00691 0.01643 0.00000
C530 C 0.26124 0.97513 0.01486 0.00000
C531 C 0.22908 0.99313 0.99611 0.00000
H532 H 0.03764 0.26138 0.07576 0.00000
H533 H 0.01639 0.18829 0.99414 0.00000
H534 H 0.96876 0.17343 0.93506 0.00000
C535 C 0.94549 0.21628 0.94322 0.00000
H536 H 0.99435 0.25610 0.01075 0.00000
H537 H 0.93744 0.20323 0.90808 0.00000
H538 H 0.95134 0.23805 0.93296 0.00000
N539 N 0.01399 0.22827 0.01537 0.00000
N540 N 0.97314 0.21562 0.96394 0.00000
H541 H 0.04495 0.23311 0.07731 0.00000
C542 C 0.04156 0.24716 0.05145 0.00000
C543 C 0.00587 0.19993 0.98993 0.00000
C544 C 0.97997 0.19186 0.95763 0.00000
C545 C 0.99395 0.23737 0.99990 0.00000
H546 H 0.83665 0.55703 0.34096 0.00000
H547 H 0.89756 0.57484 0.45274 0.00000
H548 H 0.93660 0.56110 0.41539 0.00000
C549 C 0.92530 0.53804 0.29951 0.00000
H550 H 0.87621 0.54826 0.28796 0.00000
H551 H 0.94734 0.54556 0.31070 0.00000
H552 H 0.92524 0.54510 0.25961 0.00000
N553 N 0.87791 0.56303 0.37045 0.00000
N554 N 0.91177 0.55153 0.33812 0.00000
H555 H 0.84132 0.56356 0.40883 0.00000
C556 C 0.85206 0.56974 0.37102 0.00000
C557 C 0.89828 0.56775 0.41503 0.00000
C558 C 0.91959 0.56034 0.39467 0.00000
C559 C 0.88642 0.55322 0.32436 0.00000
H560 H 0.21687 0.27037 0.01008 0.00000
H561 H 0.17859 0.20659 0.90137 0.00000
H562 H 0.19703 0.16821 0.91463 0.00000
C563 C 0.23959 0.18225 0.00888 0.00000
H564 H 0.23348 0.23191 0.04155 0.00000
H565 H 0.23000 0.15991 0.99766 0.00000
H566 H 0.24019 0.18338 0.05146 0.00000
N567 N 0.20488 0.22827 0.97507 0.00000
N568 N 0.22048 0.19499 0.98684 0.00000
H569 H 0.19848 0.26404 0.95021 0.00000
C570 C 0.19923 0.25427 0.98705 0.00000
C571 C 0.19194 0.20675 0.93106 0.00000
C572 C 0.20192 0.18579 0.93835 0.00000
C573 C 0.22205 0.22080 0.00830 0.00000
H574 H 0.74307 0.93740 0.96528 0.00000
H575 H 0.80978 0.97964 0.06706 0.00000
H576 H 0.82419 0.03580 0.07223 0.00000
C577 C 0.78550 0.05136 0.00361 0.00000
H578 H 0.74766 0.99055 0.97265 0.00000
H579 H 0.79655 0.06740 0.03378 0.00000
H580 H 0.76368 0.04726 0.00126 0.00000
N581 N 0.77300 0.97419 0.01433 0.00000
N582 N 0.78523 0.02252 0.01934 0.00000
H583 H 0.76959 0.93251 0.99544 0.00000
C584 C 0.75495 0.94058 0.00144 0.00000
C585 C 0.79922 0.98902 0.04882 0.00000
C586 C 0.80703 0.01959 0.05176 0.00000
C587 C 0.76491 0.99481 0.99690 0.00000
H588 H 0.04955 0.77571 0.99016 0.00000
H589 H 0.01978 0.82693 0.93440 0.00000
H590 H 0.96249 0.80188 0.95381 0.00000
C591 C 0.93668 0.74357 0.01474 0.00000
H592 H 0.99407 0.74902 0.02706 0.00000
H593 H 0.92277 0.75267 0.01800 0.00000
H594 H 0.93758 0.73507 0.05289 0.00000
N595 N 0.01738 0.78945 0.98087 0.00000
N596 N 0.96808 0.76806 0.99812 0.00000
H597 H 0.06029 0.80448 0.94646 0.00000
C598 C 0.04974 0.79569 0.98375 0.00000
C599 C 0.00730 0.80814 0.95537 0.00000
C600 C 0.97611 0.79454 0.96605 0.00000
C601 C 0.99336 0.76535 0.00644 0.00000
H602 H 0.75329 0.80480 0.02816 0.00000
H603 H 0.71185 0.74868 0.90860 0.00000
H604 H 0.72982 0.70957 0.90372 0.00000
C605 C 0.77437 0.71716 0.99071 0.00000
H606 H 0.76985 0.76441 0.04165 0.00000
H607 H 0.76425 0.69572 0.97435 0.00000
H608 H 0.77595 0.71548 0.03292 0.00000
N609 N 0.73994 0.76528 0.98211 0.00000
N610 N 0.75513 0.73135 0.97823 0.00000
H611 H 0.73360 0.80252 0.97161 0.00000
C612 C 0.73503 0.79037 0.00435 0.00000
C613 C 0.72576 0.74683 0.93455 0.00000
C614 C 0.73548 0.72547 0.93196 0.00000
C615 C 0.75759 0.75560 0.00793 0.00000
H616 H 0.08714 0.47019 0.70522 0.00000
H617 H 0.05607 0.42775 0.56663 0.00000
H618 H 0.07104 0.38656 0.55648 0.00000
C619 C 0.10513 0.38211 0.65255 0.00000
H620 H 0.09887 0.42605 0.71245 0.00000
H621 H 0.09576 0.36259 0.62946 0.00000
H622 H 0.10232 0.37620 0.69378 0.00000
N623 N 0.07647 0.43527 0.64821 0.00000
N624 N 0.08905 0.39953 0.63967 0.00000
H625 H 0.07394 0.47499 0.64530 0.00000
C626 C 0.07124 0.45927 0.67479 0.00000
C627 C 0.06656 0.42215 0.59446 0.00000
C628 C 0.07464 0.39966 0.58897 0.00000
C629 C 0.09002 0.42132 0.67487 0.00000
H630 H 0.52897 0.60218 0.65212 0.00000
H631 H 0.61444 0.64331 0.68499 0.00000
H632 H 0.63558 0.70103 0.68396 0.00000
C633 C 0.58949 0.71909 0.66211 0.00000
H634 H 0.54233 0.65845 0.66180 0.00000
H635 H 0.60833 0.73644 0.68053 0.00000
H636 H 0.57075 0.71812 0.67992 0.00000
N637 N 0.57079 0.63984 0.67236 0.00000
N638 N 0.58899 0.68958 0.67212 0.00000
H639 H 0.55717 0.59476 0.65308 0.00000
C640 C 0.54809 0.60615 0.67321 0.00000
C641 C 0.60274 0.65373 0.68018 0.00000
C642 C 0.61425 0.68517 0.67976 0.00000
C643 C 0.56292 0.66185 0.66754 0.00000
H644 H 0.39214 0.27720 0.37961 0.00000
H645 H 0.40524 0.29898 0.22438 0.00000
H646 H 0.44920 0.35393 0.21454 0.00000
C647 C 0.47778 0.38343 0.32143 0.00000
H648 H 0.44151 0.32987 0.38142 0.00000
H649 H 0.49196 0.39445 0.28870 0.00000
H650 H 0.49052 0.38201 0.35302 0.00000
N651 N 0.41603 0.30470 0.31211 0.00000
N652 N 0.45413 0.35193 0.30351 0.00000
H653 H 0.37391 0.26515 0.31960 0.00000
C654 C 0.39476 0.27420 0.33824 0.00000
C655 C 0.41810 0.31220 0.25451 0.00000
C656 C 0.44209 0.34210 0.24912 0.00000
C657 C 0.43796 0.32899 0.34103 0.00000
H658 H 0.71403 0.15201 0.35045 0.00000
H659 H 0.67245 0.08147 0.44406 0.00000
H660 H 0.62007 0.04493 0.40204 0.00000
C661 C 0.60757 0.06569 0.29517 0.00000
H662 H 0.66616 0.11655 0.29197 0.00000
H663 H 0.59356 0.04281 0.30012 0.00000
H664 H 0.61473 0.06960 0.25462 0.00000
N665 N 0.67963 0.10810 0.36968 0.00000
N666 N 0.63462 0.07642 0.33321 0.00000
H667 H 0.71619 0.14153 0.41483 0.00000
C668 C 0.71184 0.13434 0.37427 0.00000
C669 C 0.66448 0.08381 0.40830 0.00000
C670 C 0.63597 0.06387 0.38536 0.00000
C671 C 0.66123 0.10324 0.32462 0.00000
H672 H 0.47167 0.08592 0.31022 0.00000
H673 H 0.40955 0.04042 0.41870 0.00000
H674 H 0.37169 0.06001 0.42146 0.00000
C675 C 0.38488 0.10908 0.34066 0.00000
H676 H 0.43340 0.10501 0.29441 0.00000
H677 H 0.36277 0.09888 0.35357 0.00000
H678 H 0.38533 0.11275 0.29866 0.00000
N679 N 0.43033 0.07176 0.35042 0.00000
N680 N 0.39748 0.08837 0.35241 0.00000
H681 H 0.46602 0.06334 0.36405 0.00000
C682 C 0.45577 0.06683 0.33038 0.00000
C683 C 0.40948 0.05586 0.39424 0.00000
C684 C 0.38881 0.06646 0.39567 0.00000
C685 C 0.42272 0.09131 0.32568 0.00000
H686 H 0.92882 0.38719 0.35090 0.00000
H687 H 0.95844 0.33928 0.27952 0.00000
H688 H 0.91817 0.28269 0.28693 0.00000
C689 C 0.86142 0.27069 0.34317 0.00000
H690 H 0.88162 0.33292 0.35252 0.00000
H691 H 0.85791 0.25244 0.31962 0.00000
H692 H 0.84324 0.27384 0.33771 0.00000
N693 N 0.92474 0.34731 0.31802 0.00000
N694 N 0.88993 0.29856 0.32380 0.00000
H695 H 0.96152 0.39103 0.32957 0.00000
C696 C 0.93895 0.38151 0.32002 0.00000
C697 C 0.93794 0.33076 0.29509 0.00000
C698 C 0.91598 0.29994 0.29899 0.00000
C699 C 0.89575 0.32747 0.33516 0.00000
H700 H 0.70420 0.59342 0.40974 0.00000
H701 H 0.68412 0.52269 0.32138 0.00000
H702 H 0.63631 0.50848 0.26332 0.00000
C703 C 0.61201 0.55020 0.27740 0.00000
H704 H 0.66058 0.58892 0.34657 0.00000
H705 H 0.60413 0.53800 0.24131 0.00000
H706 H 0.61750 0.57211 0.26922 0.00000
N707 N 0.68094 0.56167 0.34708 0.00000
N708 N 0.63994 0.54960 0.29653 0.00000
H709 H 0.71212 0.56557 0.40781 0.00000
C710 C 0.70842 0.58003 0.38370 0.00000
C711 C 0.67328 0.53410 0.31901 0.00000
C712 C 0.64728 0.52639 0.28727 0.00000
C713 C 0.66053 0.57067 0.33300 0.00000
H714 H 0.60135 0.87949 0.67754 0.00000
H715 H 0.51973 0.82787 0.72980 0.00000
H716 H 0.48788 0.85334 0.71023 0.00000
C717 C 0.52119 0.91233 0.65171 0.00000
H718 H 0.57314 0.90679 0.64061 0.00000
H719 H 0.49825 0.90336 0.64761 0.00000
H720 H 0.53104 0.92126 0.61405 0.00000
N721 N 0.55539 0.86581 0.68526 0.00000
N722 N 0.52781 0.88757 0.66786 0.00000
H723 H 0.58275 0.85022 0.71999 0.00000
C724 C 0.58146 0.85948 0.68290 0.00000
C725 C 0.52633 0.84692 0.70950 0.00000
C726 C 0.50895 0.86074 0.69873 0.00000
C727 C 0.55585 0.89026 0.66034 0.00000
H728 H 0.05183 0.60761 0.67615 0.00000
H729 H 0.11627 0.63317 0.56881 0.00000
H730 H 0.15449 0.68998 0.58235 0.00000
C731 C 0.13982 0.71845 0.67583 0.00000
H732 H 0.09003 0.66267 0.70791 0.00000
H733 H 0.16222 0.73121 0.66504 0.00000
H734 H 0.13843 0.71791 0.71838 0.00000
N735 N 0.09412 0.63774 0.64187 0.00000
N736 N 0.12727 0.68662 0.65388 0.00000
H737 H 0.05855 0.59558 0.61662 0.00000
C738 C 0.06809 0.60610 0.65357 0.00000
C739 C 0.11591 0.64635 0.59832 0.00000
C740 C 0.13677 0.67727 0.60576 0.00000
C741 C 0.10135 0.66237 0.67497 0.00000
H742 H 0.27464 0.43236 0.65214 0.00000
H743 H 0.31673 0.40637 0.55309 0.00000
H744 H 0.36922 0.42160 0.59391 0.00000
C745 C 0.38145 0.45209 0.70367 0.00000
H746 H 0.32264 0.44373 0.70927 0.00000
H747 H 0.39563 0.44356 0.69696 0.00000
H748 H 0.37429 0.44777 0.74420 0.00000
N749 N 0.30932 0.42375 0.62995 0.00000
N750 N 0.35442 0.43655 0.66536 0.00000
H751 H 0.27260 0.42140 0.58655 0.00000
C752 C 0.27700 0.41761 0.62649 0.00000
C753 C 0.32464 0.41581 0.58952 0.00000
C754 C 0.35321 0.42403 0.61180 0.00000
C755 C 0.32768 0.43627 0.67545 0.00000
loop_
_geom_bond_atom_site_label_1
_geom_bond_atom_site_label_2
_geom_bond_distance
_geom_bond_site_symmetry_2
_ccdc_geom_bond_type
O0 Cd3 2.240 . S
O0 C10 1.279 . A
Cd1 O4 2.240 . S
Cd1 O7 2.297 . S
Cd1 O8 2.439 . S
Cd1 O11 2.223 . S
O2 Cd3 2.223 . S
O2 C9 1.315 . A
Cd3 O12 2.297 . S
Cd3 O13 2.439 . S
O4 C9 1.279 . A
C5 O7 1.247 . A
C5 O8 1.208 . A
C6 O12 1.247 . A
C6 O13 1.208 . A
C10 O11 1.315 . A
O14 Cd17 2.240 1_554 S
O14 C24 1.279 . A
Cd15 O18 2.240 1_554 S
Cd15 O21 2.297 . S
Cd15 O22 2.439 . S
Cd15 O25 2.223 . S
O16 Cd17 2.223 . S
O16 C23 1.315 . A
Cd17 O26 2.297 . S
Cd17 O27 2.439 1_556 S
O18 C23 1.279 . A
C19 O21 1.247 . A
C19 O22 1.208 . A
C20 O26 1.247 1_554 A
C20 O27 1.208 . A
C24 O25 1.315 . A
O28 Cd31 2.240 1_554 S
O28 C38 1.279 . A
Cd29 O32 2.240 1_554 S
Cd29 O35 2.297 . S
Cd29 O36 2.439 . S
Cd29 O39 2.223 . S
O30 Cd31 2.223 . S
O30 C37 1.315 . A
Cd31 O40 2.297 . S
Cd31 O41 2.439 1_556 S
O32 C37 1.279 . A
C33 O35 1.247 . A
C33 O36 1.208 . A
C34 O40 1.247 1_554 A
C34 O41 1.208 . A
C38 O39 1.315 . A
O42 Cd45 2.240 . S
O42 C52 1.279 . A
Cd43 O46 2.240 . S
Cd43 O49 2.297 . S
Cd43 O50 2.439 . S
Cd43 O53 2.223 . S
O44 Cd45 2.223 . S
O44 C51 1.315 . A
Cd45 O54 2.297 . S
Cd45 O55 2.439 . S
O46 C51 1.279 . A
C47 O49 1.247 . A
C47 O50 1.208 . A
C48 O54 1.247 . A
C48 O55 1.208 . A
C52 O53 1.315 . A
O56 Cd59 2.240 1_556 S
O56 C66 1.279 . A
Cd57 O60 2.240 1_556 S
Cd57 O63 2.297 . S
Cd57 O64 2.439 . S
Cd57 O67 2.223 . S
O58 Cd59 2.223 . S
O58 C65 1.315 . A
Cd59 O68 2.297 . S
Cd59 O69 2.439 1_554 S
O60 C65 1.279 . A
C61 O63 1.247 . A
C61 O64 1.208 . A
C62 O68 1.247 1_556 A
C62 O69 1.208 . A
C66 O67 1.315 . A
O70 Cd73 2.240 1_556 S
O70 C80 1.279 . A
Cd71 O74 2.240 1_556 S
Cd71 O77 2.297 . S
Cd71 O78 2.439 . S
Cd71 O81 2.223 . S
O72 Cd73 2.223 . S
O72 C79 1.315 . A
Cd73 O82 2.297 . S
Cd73 O83 2.439 1_554 S
O74 C79 1.279 . A
C75 O77 1.247 . A
C75 O78 1.208 . A
C76 O82 1.247 1_556 A
C76 O83 1.208 . A
C80 O81 1.315 . A
O84 Cd87 2.240 1_554 S
O84 C94 1.279 . A
Cd85 O88 2.240 1_554 S
Cd85 O91 2.297 . S
Cd85 O92 2.439 . S
Cd85 O95 2.223 . S
O86 Cd87 2.223 . S
O86 C93 1.315 . A
Cd87 O96 2.297 . S
Cd87 O97 2.439 1_556 S
O88 C93 1.279 . A
C89 O91 1.247 . A
C89 O92 1.208 . A
C90 O96 1.247 1_554 A
C90 O97 1.208 . A
C94 O95 1.315 . A
O98 Cd101 2.240 1_556 S
O98 C108 1.279 . A
Cd99 O102 2.240 1_556 S
Cd99 O105 2.297 . S
Cd99 O106 2.439 . S
Cd99 O109 2.223 . S
O100 Cd101 2.223 . S
O100 C107 1.315 . A
Cd101 O110 2.297 . S
Cd101 O111 2.439 1_554 S
O102 C107 1.279 . A
C103 O105 1.247 . A
C103 O106 1.208 . A
C104 O110 1.247 1_556 A
C104 O111 1.208 . A
C108 O109 1.315 . A
O112 Cd115 2.240 . S
O112 C122 1.279 . A
Cd113 O116 2.240 . S
Cd113 O119 2.297 . S
Cd113 O120 2.439 . S
Cd113 O123 2.223 . S
O114 Cd115 2.223 . S
O114 C121 1.315 . A
Cd115 O124 2.297 . S
Cd115 O125 2.439 . S
O116 C121 1.279 . A
C117 O119 1.247 . A
C117 O120 1.208 . A
C118 O124 1.247 . A
C118 O125 1.208 . A
C122 O123 1.315 . A
O126 Cd129 2.240 . S
O126 C136 1.279 . A
Cd127 O130 2.240 . S
Cd127 O133 2.297 . S
Cd127 O134 2.439 . S
Cd127 O137 2.223 . S
O128 Cd129 2.223 . S
O128 C135 1.315 . A
Cd129 O138 2.297 . S
Cd129 O139 2.439 . S
O130 C135 1.279 . A
C131 O133 1.247 . A
C131 O134 1.208 . A
C132 O138 1.247 . A
C132 O139 1.208 . A
C136 O137 1.315 . A
O140 Cd143 2.240 . S
O140 C150 1.279 . A
Cd141 O144 2.240 . S
Cd141 O147 2.297 . S
Cd141 O148 2.439 . S
Cd141 O151 2.223 . S
O142 Cd143 2.223 . S
O142 C149 1.315 . A
Cd143 O152 2.297 . S
Cd143 O153 2.439 . S
O144 C149 1.279 . A
C145 O147 1.247 . A
C145 O148 1.208 . A
C146 O152 1.247 . A
C146 O153 1.208 . A
C150 O151 1.315 . A
O154 Cd157 2.240 . S
O154 C164 1.279 . A
Cd155 O158 2.240 . S
Cd155 O161 2.297 . S
Cd155 O162 2.439 . S
Cd155 O165 2.223 . S
O156 Cd157 2.223 . S
O156 C163 1.315 . A
Cd157 O166 2.297 . S
Cd157 O167 2.439 . S
O158 C163 1.279 . A
C159 O161 1.247 . A
C159 O162 1.208 . A
C160 O166 1.247 . A
C160 O167 1.208 . A
C164 O165 1.315 . A
O168 Cd171 2.240 . S
O168 C178 1.279 . A
Cd169 O172 2.240 . S
Cd169 O175 2.297 . S
Cd169 O176 2.439 . S
Cd169 O179 2.223 . S
O170 Cd171 2.223 . S
O170 C177 1.315 . A
Cd171 O180 2.297 . S
Cd171 O181 2.439 . S
O172 C177 1.279 . A
C173 O175 1.247 . A
C173 O176 1.208 . A
C174 O180 1.247 . A
C174 O181 1.208 . A
C178 O179 1.315 . A
O182 Cd185 2.240 . S
O182 C192 1.279 . A
Cd183 O186 2.240 . S
Cd183 O189 2.297 . S
Cd183 O190 2.439 . S
Cd183 O193 2.223 . S
O184 Cd185 2.223 . S
O184 C191 1.315 . A
Cd185 O194 2.297 . S
Cd185 O195 2.439 . S
O186 C191 1.279 . A
C187 O189 1.247 . A
C187 O190 1.208 . A
C188 O194 1.247 . A
C188 O195 1.208 . A
C192 O193 1.315 . A
O196 Cd199 2.240 . S
O196 C206 1.279 . A
Cd197 O200 2.240 . S
Cd197 O203 2.297 . S
Cd197 O204 2.439 . S
Cd197 O207 2.223 . S
O198 Cd199 2.223 . S
O198 C205 1.315 . A
Cd199 O208 2.297 . S
Cd199 O209 2.439 . S
O200 C205 1.279 . A
C201 O203 1.247 . A
C201 O204 1.208 . A
C202 O208 1.247 . A
C202 O209 1.208 . A
C206 O207 1.315 . A
O210 Cd213 2.240 . S
O210 C220 1.279 . A
Cd211 O214 2.240 1_565 S
Cd211 O217 2.297 . S
Cd211 O218 2.439 1_565 S
Cd211 O221 2.223 1_565 S
O212 Cd213 2.223 . S
O212 C219 1.315 . A
Cd213 O222 2.297 . S
Cd213 O223 2.439 . S
O214 C219 1.279 . A
C215 O217 1.247 1_545 A
C215 O218 1.208 . A
C216 O222 1.247 . A
C216 O223 1.208 . A
C220 O221 1.315 . A
O224 Cd227 2.240 . S
O224 C234 1.279 . A
Cd225 O228 2.240 1_655 S
Cd225 O231 2.297 . S
Cd225 O232 2.439 1_655 S
Cd225 O235 2.223 1_655 S
O226 Cd227 2.223 . S
O226 C233 1.315 . A
Cd227 O236 2.297 . S
Cd227 O237 2.439 . S
O228 C233 1.279 . A
C229 O231 1.247 1_455 A
C229 O232 1.208 . A
C230 O236 1.247 . A
C230 O237 1.208 . A
C234 O235 1.315 . A
O238 Cd241 2.240 . S
O238 C248 1.279 . A
Cd239 O242 2.240 . S
Cd239 O245 2.297 . S
Cd239 O246 2.439 . S
Cd239 O249 2.223 . S
O240 Cd241 2.223 . S
O240 C247 1.315 . A
Cd241 O250 2.297 . S
Cd241 O251 2.439 . S
O242 C247 1.279 . A
C243 O245 1.247 . A
C243 O246 1.208 . A
C244 O250 1.247 . A
C244 O251 1.208 . A
C248 O249 1.315 . A
H252 C262 0.990 1_565 S
H253 C263 0.951 . S
H254 C264 0.950 . S
C255 H257 1.010 . S
C255 H258 0.990 . S
C255 N260 1.459 1_565 S
H256 C265 0.952 . S
N259 C262 1.465 . S
N259 C263 1.379 . A
N259 C265 1.328 1_545 A
N260 C264 1.376 . A
N260 C265 1.324 1_546 A
H261 C262 0.991 . S
C263 C264 1.353 1_554 A
H266 C276 0.990 . S
H267 C277 0.950 . S
H268 C278 0.950 . S
C269 H271 0.990 . S
C269 H272 0.990 . S
C269 N274 1.459 . S
H270 C279 0.950 . S
N273 C276 1.465 . S
N273 C277 1.377 . A
N273 C279 1.325 . A
N274 C278 1.376 . A
N274 C279 1.330 . A
H275 C276 0.991 . S
C277 C278 1.356 . A
H280 C290 0.990 . S
H281 C291 0.950 . S
H282 C292 0.950 . S
C283 H285 0.990 . S
C283 H286 0.990 . S
C283 N288 1.459 . S
H284 C293 0.950 . S
N287 C290 1.465 . S
N287 C291 1.377 . A
N287 C293 1.325 . A
N288 C292 1.376 . A
N288 C293 1.330 . A
H289 C290 0.991 . S
C291 C292 1.356 . A
H294 C304 0.990 . S
H295 C305 0.950 . S
H296 C306 0.950 . S
C297 H299 0.990 . S
C297 H300 0.990 . S
C297 N302 1.459 . S
H298 C307 0.950 . S
N301 C304 1.465 . S
N301 C305 1.377 . A
N301 C307 1.325 . A
N302 C306 1.376 . A
N302 C307 1.330 . A
H303 C304 0.991 . S
C305 C306 1.356 . A
H308 C318 0.990 . S
H309 C319 0.950 . S
H310 C320 0.950 . S
C311 H313 0.990 . S
C311 H314 0.990 . S
C311 N316 1.459 . S
H312 C321 0.950 . S
N315 C318 1.465 . S
N315 C319 1.377 . A
N315 C321 1.325 . A
N316 C320 1.376 . A
N316 C321 1.330 . A
H317 C318 0.991 . S
C319 C320 1.356 . A
H322 C332 0.990 . S
H323 C333 0.950 . S
H324 C334 0.950 . S
C325 H327 0.990 . S
C325 H328 0.990 . S
C325 N330 1.459 . S
H326 C335 0.950 . S
N329 C332 1.465 . S
N329 C333 1.377 . A
N329 C335 1.325 . A
N330 C334 1.376 . A
N330 C335 1.330 . A
H331 C332 0.991 . S
C333 C334 1.356 . A
H336 C346 0.990 . S
H337 C347 0.950 . S
H338 C348 0.950 . S
C339 H341 0.990 . S
C339 H342 0.990 . S
C339 N344 1.459 . S
H340 C349 0.950 . S
N343 C346 1.465 . S
N343 C347 1.377 . A
N343 C349 1.325 . A
N344 C348 1.376 . A
N344 C349 1.330 . A
H345 C346 0.991 . S
C347 C348 1.356 . A
H350 C360 0.990 . S
H351 C361 0.950 . S
H352 C362 0.950 . S
C353 H355 0.990 . S
C353 H356 0.990 . S
C353 N358 1.459 . S
H354 C363 0.951 . S
N357 C360 1.465 . S
N357 C361 1.377 1_655 A
N357 C363 1.325 1_554 A
N358 C362 1.376 . A
N358 C363 1.330 1_455 A
H359 C360 0.991 . S
C361 C362 1.356 1_554 A
H364 C374 0.990 . S
H365 C375 0.950 . S
H366 C376 0.950 . S
C367 H369 0.990 . S
C367 H370 0.990 . S
C367 N372 1.459 . S
H368 C377 0.950 1_556 S
N371 C374 1.465 . S
N371 C375 1.377 . A
N371 C377 1.318 1_556 A
N372 C376 1.376 . A
N372 C377 1.337 . A
H373 C374 0.991 . S
C375 C376 1.356 1_556 A
H378 C388 0.990 . S
H379 C389 0.950 . S
H380 C390 0.950 . S
C381 H383 0.990 1_545 S
C381 H384 0.990 . S
C381 N386 1.459 1_545 S
H382 C391 0.950 1_545 S
N385 C388 1.465 . S
N385 C389 1.377 . A
N385 C391 1.325 . A
N386 C390 1.376 . A
N386 C391 1.330 . A
H387 C388 0.991 . S
C389 C390 1.356 . A
H392 C402 0.990 . S
H393 C403 0.950 . S
H394 C404 0.950 . S
C395 H397 0.990 . S
C395 H398 0.990 . S
C395 N400 1.459 . S
H396 C405 0.950 . S
N399 C402 1.465 . S
N399 C403 1.377 . A
N399 C405 1.325 . A
N400 C404 1.376 . A
N400 C405 1.330 . A
H401 C402 0.991 . S
C403 C404 1.356 . A
H406 C416 0.990 . S
H407 C417 0.950 . S
H408 C418 0.950 . S
C409 H411 0.990 . S
C409 H412 0.990 . S
C409 N414 1.459 . S
H410 C419 0.950 . S
N413 C416 1.465 . S
N413 C417 1.377 . A
N413 C419 1.325 . A
N414 C418 1.376 . A
N414 C419 1.330 . A
H415 C416 0.991 . S
C417 C418 1.356 . A
H420 C430 0.990 . S
H421 C431 0.950 . S
H422 C432 0.950 . S
C423 H425 0.990 . S
C423 H426 0.990 . S
C423 N428 1.459 . S
H424 C433 0.950 . S
N427 C430 1.465 . S
N427 C431 1.377 . A
N427 C433 1.325 . A
N428 C432 1.376 . A
N428 C433 1.330 . A
H429 C430 0.991 . S
C431 C432 1.356 . A
H434 C444 0.990 . S
H435 C445 0.950 . S
H436 C446 0.950 . S
C437 H439 0.990 . S
C437 H440 0.990 . S
C437 N442 1.459 . S
H438 C447 0.950 . S
N441 C444 1.465 . S
N441 C445 1.377 . A
N441 C447 1.325 . A
N442 C446 1.376 . A
N442 C447 1.330 . A
H443 C444 0.991 . S
C445 C446 1.356 . A
H448 C458 0.990 . S
H449 C459 0.950 . S
H450 C460 0.950 . S
C451 H453 0.990 . S
C451 H454 0.990 . S
C451 N456 1.459 . S
H452 C461 0.950 . S
N455 C458 1.465 . S
N455 C459 1.377 . A
N455 C461 1.325 . A
N456 C460 1.376 . A
N456 C461 1.330 . A
H457 C458 0.991 . S
C459 C460 1.356 . A
H462 C472 0.990 . S
H463 C473 0.950 . S
H464 C474 0.950 . S
C465 H467 0.990 . S
C465 H468 0.990 . S
C465 N470 1.459 . S
H466 C475 0.950 . S
N469 C472 1.465 . S
N469 C473 1.377 . A
N469 C475 1.325 . A
N470 C474 1.376 . A
N470 C475 1.330 . A
H471 C472 0.991 . S
C473 C474 1.356 . A
H476 C486 0.989 1_655 S
H477 C487 0.950 . S
H478 C488 0.950 . S
C479 H481 0.990 . S
C479 H482 0.990 . S
C479 N484 1.459 . S
H480 C489 0.950 . S
N483 C486 1.465 . S
N483 C487 1.377 . A
N483 C489 1.325 1_455 A
N484 C488 1.376 1_655 A
N484 C489 1.330 . A
H485 C486 0.991 . S
C487 C488 1.356 . A
H490 C500 0.990 . S
H491 C501 0.950 . S
H492 C502 0.950 . S
C493 H495 0.990 . S
C493 H496 0.990 . S
C493 N498 1.459 . S
H494 C503 0.950 . S
N497 C500 1.465 . S
N497 C501 1.377 . A
N497 C503 1.325 . A
N498 C502 1.376 . A
N498 C503 1.330 . A
H499 C500 0.991 . S
C501 C502 1.356 . A
H504 C514 0.990 . S
H505 C515 0.950 . S
H506 C516 0.950 . S
C507 H509 0.990 . S
C507 H510 0.990 . S
C507 N512 1.459 . S
H508 C517 0.950 . S
N511 C514 1.465 . S
N511 C515 1.377 . A
N511 C517 1.325 . A
N512 C516 1.376 . A
N512 C517 1.330 . A
H513 C514 0.991 . S
C515 C516 1.356 . A
H518 C528 0.990 1_554 S
H519 C529 0.950 . S
H520 C530 0.950 . S
C521 H523 0.990 1_554 S
C521 H524 0.990 1_554 S
C521 N526 1.459 . S
H522 C531 0.950 . S
N525 C528 1.465 1_554 S
N525 C529 1.377 . A
N525 C531 1.325 1_544 A
N526 C530 1.376 . A
N526 C531 1.330 1_554 A
H527 C528 0.991 1_554 S
C529 C530 1.356 1_545 A
H532 C542 0.990 . S
H533 C543 0.950 . S
H534 C544 0.950 . S
C535 H537 0.990 . S
C535 H538 0.990 . S
C535 N540 1.459 . S
H536 C545 0.946 1_554 S
N539 C542 1.465 . S
N539 C543 1.377 1_554 A
N539 C545 1.320 1_454 A
N540 C544 1.376 . A
N540 C545 1.340 . A
H541 C542 0.991 . S
C543 C544 1.356 1_455 A
H546 C556 0.990 . S
H547 C557 0.950 . S
H548 C558 0.950 . S
C549 H551 0.990 . S
C549 H552 0.990 . S
C549 N554 1.459 . S
H550 C559 0.950 . S
N553 C556 1.465 . S
N553 C557 1.377 . A
N553 C559 1.325 . A
N554 C558 1.376 . A
N554 C559 1.330 . A
H555 C556 0.991 . S
C557 C558 1.356 . A
H560 C570 0.990 1_554 S
H561 C571 0.950 . S
H562 C572 0.950 . S
C563 H565 0.990 1_554 S
C563 H566 0.990 . S
C563 N568 1.459 1_554 S
H564 C573 0.950 . S
N567 C570 1.465 . S
N567 C571 1.377 . A
N567 C573 1.325 1_556 A
N568 C572 1.376 . A
N568 C573 1.330 1_556 A
H569 C570 0.991 . S
C571 C572 1.356 . A
H574 C584 0.990 1_556 S
H575 C585 0.950 . S
H576 C586 0.950 . S
C577 H579 0.990 . S
C577 H580 0.990 . S
C577 N582 1.459 . S
H578 C587 0.950 . S
N581 C584 1.465 . S
N581 C585 1.377 . A
N581 C587 1.325 1_554 A
N582 C586 1.376 . A
N582 C587 1.330 1_544 A
H583 C584 0.991 1_556 S
C585 C586 1.356 1_565 A
H588 C598 0.990 . S
H589 C599 0.950 . S
H590 C600 0.950 . S
C591 H593 0.990 . S
C591 H594 0.990 . S
C591 N596 1.459 1_554 S
H592 C601 0.950 . S
N595 C598 1.465 . S
N595 C599 1.377 . A
N595 C601 1.325 1_456 A
N596 C600 1.376 . A
N596 C601 1.330 1_556 A
H597 C598 0.991 . S
C599 C600 1.356 1_455 A
H602 C612 0.990 . S
H603 C613 0.950 . S
H604 C614 0.950 . S
C605 H607 0.990 . S
C605 H608 0.990 1_556 S
C605 N610 1.459 . S
H606 C615 0.950 . S
N609 C612 1.465 1_556 S
N609 C613 1.377 . A
N609 C615 1.325 1_556 A
N610 C614 1.376 . A
N610 C615 1.330 1_556 A
H611 C612 0.991 1_556 S
C613 C614 1.356 . A
H616 C626 0.990 . S
H617 C627 0.950 . S
H618 C628 0.950 . S
C619 H621 0.990 . S
C619 H622 0.990 . S
C619 N624 1.459 . S
H620 C629 0.950 . S
N623 C626 1.465 . S
N623 C627 1.377 . A
N623 C629 1.325 . A
N624 C628 1.376 . A
N624 C629 1.330 . A
H625 C626 0.991 . S
C627 C628 1.356 . A
H630 C640 0.990 . S
H631 C641 0.950 . S
H632 C642 0.950 . S
C633 H635 0.990 . S
C633 H636 0.990 . S
C633 N638 1.459 . S
H634 C643 0.950 . S
N637 C640 1.465 . S
N637 C641 1.377 . A
N637 C643 1.325 . A
N638 C642 1.376 . A
N638 C643 1.330 . A
H639 C640 0.991 . S
C641 C642 1.356 . A
H644 C654 0.990 . S
H645 C655 0.950 . S
H646 C656 0.950 . S
C647 H649 0.990 . S
C647 H650 0.990 . S
C647 N652 1.459 . S
H648 C657 0.950 . S
N651 C654 1.465 . S
N651 C655 1.377 . A
N651 C657 1.325 . A
N652 C656 1.376 . A
N652 C657 1.330 . A
H653 C654 0.991 . S
C655 C656 1.356 . A
H658 C668 0.990 . S
H659 C669 0.950 . S
H660 C670 0.950 . S
C661 H663 0.990 . S
C661 H664 0.990 . S
C661 N666 1.459 . S
H662 C671 0.950 . S
N665 C668 1.465 . S
N665 C669 1.377 . A
N665 C671 1.325 . A
N666 C670 1.376 . A
N666 C671 1.330 . A
H667 C668 0.991 . S
C669 C670 1.356 . A
H672 C682 0.990 . S
H673 C683 0.950 . S
H674 C684 0.950 . S
C675 H677 0.990 . S
C675 H678 0.990 . S
C675 N680 1.459 . S
H676 C685 0.950 . S
N679 C682 1.465 . S
N679 C683 1.377 . A
N679 C685 1.325 . A
N680 C684 1.376 . A
N680 C685 1.330 . A
H681 C682 0.991 . S
C683 C684 1.356 . A
H686 C696 0.990 . S
H687 C697 0.950 . S
H688 C698 0.950 . S
C689 H691 0.990 . S
C689 H692 0.990 . S
C689 N694 1.459 . S
H690 C699 0.950 . S
N693 C696 1.465 . S
N693 C697 1.377 . A
N693 C699 1.325 . A
N694 C698 1.376 . A
N694 C699 1.330 . A
H695 C696 0.991 . S
C697 C698 1.356 . A
H700 C710 0.990 . S
H701 C711 0.950 . S
H702 C712 0.950 . S
C703 H705 0.990 . S
C703 H706 0.990 . S
C703 N708 1.459 . S
H704 C713 0.950 . S
N707 C710 1.465 . S
N707 C711 1.377 . A
N707 C713 1.325 . A
N708 C712 1.376 . A
N708 C713 1.330 . A
H709 C710 0.991 . S
C711 C712 1.356 . A
H714 C724 0.990 . S
H715 C725 0.950 . S
H716 C726 0.950 . S
C717 H719 0.990 . S
C717 H720 0.990 . S
C717 N722 1.459 . S
H718 C727 0.950 . S
N721 C724 1.465 . S
N721 C725 1.377 . A
N721 C727 1.325 . A
N722 C726 1.376 . A
N722 C727 1.330 . A
H723 C724 0.991 . S
C725 C726 1.356 . A
H728 C738 0.990 . S
H729 C739 0.950 . S
H730 C740 0.950 . S
C731 H733 0.990 . S
C731 H734 0.990 . S
C731 N736 1.459 . S
H732 C741 0.950 . S
N735 C738 1.465 . S
N735 C739 1.377 . A
N735 C741 1.325 . A
N736 C740 1.376 . A
N736 C741 1.330 . A
H737 C738 0.991 . S
C739 C740 1.356 . A
H742 C752 0.990 . S
H743 C753 0.950 . S
H744 C754 0.950 . S
C745 H747 0.990 . S
C745 H748 0.990 . S
C745 N750 1.459 . S
H746 C755 0.950 . S
N749 C752 1.465 . S
N749 C753 1.377 . A
N749 C755 1.325 . A
N750 C754 1.376 . A
N750 C755 1.330 . A
H751 C752 0.991 . S
C753 C754 1.356 . A
C255 C5 1.261 . S
C262 C215 1.306 . S
C269 C19 1.261 . S
C276 C145 1.306 . S
C283 C33 1.249 . S
C290 C117 1.302 . S
C297 C47 1.253 . S
C304 C103 1.302 . S
C311 C61 1.254 . S
C318 C159 1.302 . S
C325 C173 1.242 . S
C332 C75 1.347 . S
C339 C131 1.213 . S
C346 C89 1.346 . S
C353 C229 1.212 . S
C360 C187 1.332 . S
C367 C201 1.215 . S
C374 C243 1.323 . S
C381 C219 0.882 . S
C388 C9 0.764 . S
C395 C23 0.719 . S
C402 C149 0.948 . S
C409 C121 0.957 . S
C416 C37 1.010 . S
C423 C51 0.811 . S
C430 C107 1.008 . S
C437 C65 0.657 . S
C444 C163 0.830 . S
C451 C177 0.875 . S
C458 C79 1.027 . S
C465 C135 0.785 . S
C472 C93 0.724 . S
C479 C191 0.824 . S
C486 C233 0.732 . S
C493 C247 0.717 . S
C500 C205 0.946 . S
C507 C150 1.322 . S
C514 C10 1.413 . S
C521 C24 1.288 . S
C528 C66 1.384 . S
C535 C80 1.392 . S
C542 C38 1.483 . S
C549 C188 1.428 . S
C556 C48 1.367 . S
C563 C62 0.972 1_554 S
C570 C34 1.201 1_556 S
C577 C76 1.216 1_554 S
C584 C90 1.112 . S
C591 C104 0.988 1_554 S
C598 C20 1.126 1_556 S
C605 C108 1.296 . S
C612 C94 1.394 . S
C619 C122 1.305 . S
C626 C234 1.402 . S
C633 C136 1.297 . S
C640 C248 1.390 . S
C647 C202 1.072 . S
C654 C160 1.368 . S
C661 C216 1.438 . S
C668 C174 1.404 . S
C675 C164 1.293 . S
C682 C220 1.390 . S
C689 C178 1.310 . S
C696 C192 1.402 . S
C703 C206 1.391 . S
C710 C52 1.482 . S
C717 C6 0.989 . S
C724 C132 1.120 . S
C731 C146 0.973 . S
C738 C230 1.199 . S
C745 C244 1.436 . S
C752 C118 1.395 . S
