# Generated by pormake.
# Topology wfz, (7)-cn, num edge types: 1
# Building blocks:
#     Node 0, Type 0, BuildingBlock: N599, # of connection points: 7
#     Node 1, Type 0, BuildingBlock: N599, # of connection points: 7
#     Node 2, Type 0, BuildingBlock: N599, # of connection points: 7
#     Node 3, Type 0, BuildingBlock: N599, # of connection points: 7
#     Node 4, Type 0, BuildingBlock: N599, # of connection points: 7
#     Node 5, Type 0, BuildingBlock: N599, # of connection points: 7
#     Node 6, Type 0, BuildingBlock: N599, # of connection points: 7
#     Node 7, Type 0, BuildingBlock: N599, # of connection points: 7
#     Edge 8, Type (0, 0), BuildingBlock: E29, # of connection points: 2
#     Edge 9, Type (0, 0), BuildingBlock: E29, # of connection points: 2
#     Edge 10, Type (0, 0), BuildingBlock: E29, # of connection points: 2
#     Edge 11, Type (0, 0), BuildingBlock: E29, # of connection points: 2
#     Edge 12, Type (0, 0), BuildingBlock: E29, # of connection points: 2
#     Edge 13, Type (0, 0), BuildingBlock: E29, # of connection points: 2
#     Edge 14, Type (0, 0), BuildingBlock: E29, # of connection points: 2
#     Edge 15, Type (0, 0), BuildingBlock: E29, # of connection points: 2
#     Edge 16, Type (0, 0), BuildingBlock: E29, # of connection points: 2
#     Edge 17, Type (0, 0), BuildingBlock: E29, # of connection points: 2
#     Edge 18, Type (0, 0), BuildingBlock: E29, # of connection points: 2
#     Edge 19, Type (0, 0), BuildingBlock: E29, # of connection points: 2
#     Edge 20, Type (0, 0), BuildingBlock: E29, # of connection points: 2
#     Edge 21, Type (0, 0), BuildingBlock: E29, # of connection points: 2
#     Edge 22, Type (0, 0), BuildingBlock: E29, # of connection points: 2
#     Edge 23, Type (0, 0), BuildingBlock: E29, # of connection points: 2
#     Edge 24, Type (0, 0), BuildingBlock: E29, # of connection points: 2
#     Edge 25, Type (0, 0), BuildingBlock: E29, # of connection points: 2
#     Edge 26, Type (0, 0), BuildingBlock: E29, # of connection points: 2
#     Edge 27, Type (0, 0), BuildingBlock: E29, # of connection points: 2
#     Edge 28, Type (0, 0), BuildingBlock: E29, # of connection points: 2
#     Edge 29, Type (0, 0), BuildingBlock: E29, # of connection points: 2
#     Edge 30, Type (0, 0), BuildingBlock: E29, # of connection points: 2
#     Edge 31, Type (0, 0), BuildingBlock: E29, # of connection points: 2
#     Edge 32, Type (0, 0), BuildingBlock: E29, # of connection points: 2
#     Edge 33, Type (0, 0), BuildingBlock: E29, # of connection points: 2
#     Edge 34, Type (0, 0), BuildingBlock: E29, # of connection points: 2
#     Edge 35, Type (0, 0), BuildingBlock: E29, # of connection points: 2
# Relax obj value: 0.174
# Max RMSD: 0.217
# Mean RMSD: 0.217
data_wfz+N599+E29
_symmetry_space_group_name_H-M    P1
_symmetry_Int_Tables_number       1
_symmetry_cell_setting            triclinic
loop_
_symmetry_equiv_pos_as_xyz
'x, y, z'
_cell_length_a     18.143
_cell_length_b     18.143
_cell_length_c     48.990
_cell_angle_alpha  89.997
_cell_angle_beta   90.003
_cell_angle_gamma  90.004
loop_
_atom_site_label
_atom_site_type_symbol
_atom_site_fract_x
_atom_site_fract_y
_atom_site_fract_z
_atom_type_partial_charge
C0 C 0.16330 0.55855 0.14879 0.00000
C1 C 0.20765 0.30886 0.10960 0.00000
Zn2 Zn 0.02108 0.50179 0.17667 0.00000
Zn3 Zn 0.11321 0.42126 0.12918 0.00000
Zn4 Zn 0.02691 0.33015 0.17998 0.00000
Zn5 Zn 0.94098 0.41509 0.13409 0.00000
O6 O 0.95704 0.57513 0.16081 0.00000
O7 O 0.87882 0.50124 0.13683 0.00000
C8 C 0.91114 0.26840 0.14246 0.00000
C9 C 0.89300 0.39918 0.20269 0.00000
C10 C 0.90024 0.56442 0.14658 0.00000
O11 O 0.23707 0.35626 0.09325 0.00000
O12 O 0.15926 0.32543 0.12740 0.00000
O13 O 0.97117 0.25928 0.15245 0.00000
O14 O 0.87865 0.32770 0.13642 0.00000
O15 O 0.96325 0.41937 0.09372 0.00000
O16 O 0.07921 0.44928 0.09286 0.00000
C17 C 0.08885 0.43935 0.22297 0.00000
O18 O 0.03006 0.41428 0.15388 0.00000
O19 O 0.18458 0.49896 0.13715 0.00000
O20 O 0.10694 0.56499 0.16264 0.00000
O21 O 0.93271 0.34068 0.20031 0.00000
O22 O 0.91922 0.45869 0.19569 0.00000
H23 H 0.20609 0.38906 0.08948 0.00000
O24 O 0.08661 0.38239 0.21178 0.00000
O25 O 0.06258 0.50239 0.21292 0.00000
C26 C 0.02151 0.43749 0.08116 0.00000
C27 C 0.54676 0.94200 0.35121 0.00000
C28 C 0.79645 0.89765 0.39041 0.00000
Zn29 Zn 0.60351 0.08423 0.32333 0.00000
Zn30 Zn 0.68405 0.99210 0.37083 0.00000
Zn31 Zn 0.77515 0.07840 0.32002 0.00000
Zn32 Zn 0.69022 0.16432 0.36591 0.00000
O33 O 0.53018 0.14827 0.33919 0.00000
O34 O 0.60407 0.22648 0.36316 0.00000
C35 C 0.83690 0.19417 0.35754 0.00000
C36 C 0.70612 0.21231 0.29730 0.00000
C37 C 0.54089 0.20507 0.35341 0.00000
O38 O 0.74905 0.86823 0.40676 0.00000
O39 O 0.77988 0.94604 0.37260 0.00000
O40 O 0.84603 0.13414 0.34755 0.00000
O41 O 0.77761 0.22665 0.36358 0.00000
O42 O 0.68594 0.14205 0.40628 0.00000
O43 O 0.65604 0.02609 0.40714 0.00000
C44 C 0.66595 0.01647 0.27703 0.00000
O45 O 0.69102 0.07525 0.34612 0.00000
O46 O 0.60635 0.92072 0.36285 0.00000
O47 O 0.54032 0.99837 0.33736 0.00000
O48 O 0.76462 0.17260 0.29969 0.00000
O49 O 0.64661 0.18610 0.30431 0.00000
H50 H 0.71625 0.89921 0.41052 0.00000
O51 O 0.72291 0.01871 0.28823 0.00000
O52 O 0.60291 0.04273 0.28708 0.00000
C53 C 0.66783 0.08379 0.41884 0.00000
C54 C 0.94201 0.54676 0.64879 0.00000
C55 C 0.89765 0.79645 0.60959 0.00000
Zn56 Zn 0.08423 0.60351 0.67667 0.00000
Zn57 Zn 0.99210 0.68405 0.62917 0.00000
Zn58 Zn 0.07840 0.77515 0.67997 0.00000
Zn59 Zn 0.16432 0.69022 0.63409 0.00000
O60 O 0.14827 0.53017 0.66081 0.00000
O61 O 0.22649 0.60407 0.63684 0.00000
C62 C 0.19417 0.83690 0.64246 0.00000
C63 C 0.21231 0.70612 0.70269 0.00000
C64 C 0.20507 0.54088 0.64659 0.00000
O65 O 0.86823 0.74905 0.59324 0.00000
O66 O 0.94604 0.77988 0.62739 0.00000
O67 O 0.13414 0.84603 0.65245 0.00000
O68 O 0.22665 0.77761 0.63642 0.00000
O69 O 0.14205 0.68594 0.59372 0.00000
O70 O 0.02609 0.65604 0.59286 0.00000
C71 C 0.01647 0.66595 0.72297 0.00000
O72 O 0.07525 0.69102 0.65388 0.00000
O73 O 0.92072 0.60635 0.63715 0.00000
O74 O 0.99837 0.54032 0.66264 0.00000
O75 O 0.17260 0.76462 0.70031 0.00000
O76 O 0.18610 0.64661 0.69569 0.00000
H77 H 0.89921 0.71625 0.58948 0.00000
O78 O 0.01871 0.72291 0.71177 0.00000
O79 O 0.04273 0.60291 0.71292 0.00000
C80 C 0.08379 0.66783 0.58116 0.00000
C81 C 0.05853 0.44204 0.89880 0.00000
C82 C 0.80882 0.39767 0.85960 0.00000
Zn83 Zn 0.00179 0.58426 0.92667 0.00000
Zn84 Zn 0.92123 0.49213 0.87918 0.00000
Zn85 Zn 0.83014 0.57841 0.92998 0.00000
Zn86 Zn 0.91508 0.66435 0.88409 0.00000
O87 O 0.07513 0.64831 0.91081 0.00000
O88 O 0.00124 0.72652 0.88683 0.00000
C89 C 0.76840 0.69418 0.89246 0.00000
C90 C 0.89919 0.71233 0.95269 0.00000
C91 C 0.06442 0.70511 0.89659 0.00000
O92 O 0.85622 0.36826 0.84325 0.00000
O93 O 0.82540 0.44606 0.87740 0.00000
O94 O 0.75927 0.63415 0.90245 0.00000
O95 O 0.82770 0.72667 0.88642 0.00000
O96 O 0.91935 0.64208 0.84372 0.00000
O97 O 0.94925 0.52613 0.84286 0.00000
C98 C 0.93934 0.51649 0.97297 0.00000
O99 O 0.91427 0.57528 0.90388 0.00000
O100 O 0.99893 0.42076 0.88715 0.00000
O101 O 0.06497 0.49841 0.91264 0.00000
O102 O 0.84068 0.67262 0.95031 0.00000
O103 O 0.95870 0.68612 0.94569 0.00000
H104 H 0.88903 0.39924 0.83948 0.00000
O105 O 0.88239 0.51872 0.96178 0.00000
O106 O 0.00239 0.54276 0.96292 0.00000
C107 C 0.93746 0.58382 0.83116 0.00000
C108 C 0.04679 0.66325 0.39880 0.00000
C109 C 0.29649 0.70763 0.35960 0.00000
Zn110 Zn 0.10354 0.52103 0.42668 0.00000
Zn111 Zn 0.18408 0.61317 0.37918 0.00000
Zn112 Zn 0.27518 0.52688 0.42999 0.00000
Zn113 Zn 0.19024 0.44094 0.38410 0.00000
O114 O 0.03019 0.45698 0.41082 0.00000
O115 O 0.10408 0.37877 0.38684 0.00000
C116 C 0.33692 0.41111 0.39247 0.00000
C117 C 0.20614 0.39296 0.45270 0.00000
C118 C 0.04090 0.40019 0.39659 0.00000
O119 O 0.24909 0.73704 0.34325 0.00000
O120 O 0.27991 0.65923 0.37741 0.00000
O121 O 0.34605 0.47114 0.40246 0.00000
O122 O 0.27762 0.37862 0.38643 0.00000
O123 O 0.18596 0.46322 0.34373 0.00000
O124 O 0.15606 0.57917 0.34287 0.00000
C125 C 0.16598 0.58880 0.47297 0.00000
O126 O 0.19105 0.53002 0.40389 0.00000
O127 O 0.10638 0.68454 0.38715 0.00000
O128 O 0.04035 0.60688 0.41264 0.00000
O129 O 0.26464 0.43267 0.45032 0.00000
O130 O 0.14663 0.41917 0.44570 0.00000
H131 H 0.21628 0.70606 0.33949 0.00000
O132 O 0.22294 0.58656 0.46178 0.00000
O133 O 0.10294 0.56253 0.46293 0.00000
C134 C 0.16785 0.52148 0.33116 0.00000
C135 C 0.66325 0.04679 0.60121 0.00000
C136 C 0.70763 0.29649 0.64040 0.00000
Zn137 Zn 0.52103 0.10354 0.57333 0.00000
Zn138 Zn 0.61317 0.18408 0.62082 0.00000
Zn139 Zn 0.52688 0.27518 0.57002 0.00000
Zn140 Zn 0.44094 0.19024 0.61591 0.00000
O141 O 0.45698 0.03019 0.58919 0.00000
O142 O 0.37877 0.10408 0.61316 0.00000
C143 C 0.41111 0.33692 0.60753 0.00000
C144 C 0.39296 0.20614 0.54730 0.00000
C145 C 0.40019 0.04090 0.60341 0.00000
O146 O 0.73704 0.24909 0.65675 0.00000
O147 O 0.65923 0.27991 0.62260 0.00000
O148 O 0.47114 0.34605 0.59754 0.00000
O149 O 0.37862 0.27762 0.61357 0.00000
O150 O 0.46322 0.18596 0.65627 0.00000
O151 O 0.57917 0.15606 0.65714 0.00000
C152 C 0.58879 0.16598 0.52703 0.00000
O153 O 0.53002 0.19105 0.59611 0.00000
O154 O 0.68454 0.10638 0.61285 0.00000
O155 O 0.60688 0.04035 0.58736 0.00000
O156 O 0.43267 0.26464 0.54968 0.00000
O157 O 0.41917 0.14663 0.55431 0.00000
H158 H 0.70606 0.21628 0.66052 0.00000
O159 O 0.58656 0.22294 0.53822 0.00000
O160 O 0.56253 0.10294 0.53708 0.00000
C161 C 0.52148 0.16785 0.66884 0.00000
C162 C 0.55855 0.16330 0.85120 0.00000
C163 C 0.30886 0.20765 0.89039 0.00000
Zn164 Zn 0.50179 0.02108 0.82332 0.00000
Zn165 Zn 0.42126 0.11321 0.87081 0.00000
Zn166 Zn 0.33015 0.02691 0.82001 0.00000
Zn167 Zn 0.41509 0.94098 0.86590 0.00000
O168 O 0.57513 0.95704 0.83918 0.00000
O169 O 0.50124 0.87882 0.86316 0.00000
C170 C 0.26840 0.91114 0.85753 0.00000
C171 C 0.39918 0.89300 0.79730 0.00000
C172 C 0.56442 0.90024 0.85341 0.00000
O173 O 0.35626 0.23707 0.90674 0.00000
O174 O 0.32543 0.15926 0.87259 0.00000
O175 O 0.25928 0.97117 0.84754 0.00000
O176 O 0.32770 0.87865 0.86357 0.00000
O177 O 0.41937 0.96325 0.90627 0.00000
O178 O 0.44928 0.07921 0.90713 0.00000
C179 C 0.43935 0.08885 0.77702 0.00000
O180 O 0.41428 0.03006 0.84611 0.00000
O181 O 0.49896 0.18458 0.86284 0.00000
O182 O 0.56499 0.10694 0.83735 0.00000
O183 O 0.34068 0.93271 0.79968 0.00000
O184 O 0.45869 0.91922 0.80430 0.00000
H185 H 0.38906 0.20609 0.91051 0.00000
O186 O 0.38239 0.08661 0.78821 0.00000
O187 O 0.50239 0.06259 0.78707 0.00000
C188 C 0.43749 0.02151 0.91883 0.00000
C189 C 0.44204 0.05853 0.10121 0.00000
C190 C 0.39767 0.80882 0.14041 0.00000
Zn191 Zn 0.58426 0.00179 0.07334 0.00000
Zn192 Zn 0.49213 0.92123 0.12083 0.00000
Zn193 Zn 0.57841 0.83014 0.07003 0.00000
Zn194 Zn 0.66435 0.91508 0.11592 0.00000
O195 O 0.64831 0.07513 0.08919 0.00000
O196 O 0.72652 0.00124 0.11317 0.00000
C197 C 0.69418 0.76840 0.10755 0.00000
C198 C 0.71233 0.89919 0.04731 0.00000
C199 C 0.70511 0.06442 0.10342 0.00000
O200 O 0.36825 0.85622 0.15676 0.00000
O201 O 0.44606 0.82540 0.12261 0.00000
O202 O 0.63415 0.75927 0.09756 0.00000
O203 O 0.72667 0.82770 0.11359 0.00000
O204 O 0.64208 0.91935 0.15628 0.00000
O205 O 0.52613 0.94925 0.15715 0.00000
C206 C 0.51649 0.93934 0.02704 0.00000
O207 O 0.57528 0.91427 0.09612 0.00000
O208 O 0.42076 0.99893 0.11285 0.00000
O209 O 0.49841 0.06497 0.08736 0.00000
O210 O 0.67262 0.84068 0.04970 0.00000
O211 O 0.68612 0.95870 0.05432 0.00000
H212 H 0.39924 0.88903 0.16052 0.00000
O213 O 0.51873 0.88239 0.03823 0.00000
O214 O 0.54276 0.00239 0.03708 0.00000
C215 C 0.58382 0.93746 0.16885 0.00000
C216 C 0.81178 0.24660 0.11504 0.00000
C217 C 0.75423 0.19457 0.10229 0.00000
C218 C 0.75689 0.11138 0.10846 0.00000
C219 C 0.81710 0.08023 0.12737 0.00000
C220 C 0.87465 0.13226 0.14012 0.00000
C221 C 0.87199 0.21545 0.13395 0.00000
C222 C 0.93487 0.10111 0.15903 0.00000
N223 N 0.93753 0.01792 0.16520 0.00000
N224 N 0.87997 0.96588 0.15245 0.00000
C225 C 0.81976 0.99704 0.13354 0.00000
H226 H 0.80981 0.30818 0.11047 0.00000
H227 H 0.70965 0.21763 0.08829 0.00000
H228 H 0.97748 0.13962 0.16847 0.00000
H229 H 0.77715 0.95852 0.12410 0.00000
C230 C 0.96676 0.21002 0.37618 0.00000
C231 C 0.01879 0.26756 0.38893 0.00000
C232 C 0.99393 0.34841 0.39155 0.00000
C233 C 0.91703 0.37170 0.38142 0.00000
C234 C 0.86500 0.31416 0.36867 0.00000
C235 C 0.88986 0.23331 0.36605 0.00000
C236 C 0.78809 0.33745 0.35854 0.00000
N237 N 0.76323 0.41830 0.36116 0.00000
N238 N 0.81527 0.47585 0.37392 0.00000
C239 C 0.89217 0.45255 0.38404 0.00000
H240 H 0.98517 0.15017 0.37424 0.00000
H241 H 0.07573 0.25032 0.39643 0.00000
H242 H 0.74958 0.29485 0.34911 0.00000
H243 H 0.93069 0.49515 0.39348 0.00000
C244 C 0.31200 0.89300 0.64567 0.00000
C245 C 0.36955 0.94503 0.63292 0.00000
C246 C 0.34841 0.99393 0.60845 0.00000
C247 C 0.26972 0.99080 0.59672 0.00000
C248 C 0.21217 0.93876 0.60947 0.00000
C249 C 0.23331 0.88986 0.63395 0.00000
C250 C 0.13347 0.93562 0.59775 0.00000
N251 N 0.11233 0.98452 0.57328 0.00000
N252 N 0.16988 0.03656 0.56053 0.00000
C253 C 0.24857 0.03970 0.57225 0.00000
H254 H 0.32765 0.85680 0.66379 0.00000
H255 H 0.42781 0.94736 0.64160 0.00000
H256 H 0.09087 0.89710 0.60719 0.00000
H257 H 0.29117 0.07822 0.56281 0.00000
C258 C 0.63159 0.72709 0.88825 0.00000
C259 C 0.57957 0.78464 0.87550 0.00000
C260 C 0.61139 0.84845 0.85845 0.00000
C261 C 0.69524 0.85470 0.85414 0.00000
C262 C 0.74726 0.79715 0.86689 0.00000
C263 C 0.71543 0.73334 0.88395 0.00000
C264 C 0.83111 0.80339 0.86258 0.00000
N265 N 0.86293 0.86720 0.84553 0.00000
N266 N 0.81090 0.92476 0.83278 0.00000
C267 C 0.72706 0.91851 0.83708 0.00000
H268 H 0.60804 0.67985 0.90088 0.00000
H269 H 0.51750 0.78002 0.87869 0.00000
H270 H 0.86962 0.76079 0.87202 0.00000
H271 H 0.68855 0.96111 0.82765 0.00000
C272 C 0.46775 0.24778 0.38817 0.00000
C273 C 0.41574 0.30533 0.40092 0.00000
C274 C 0.38988 0.37196 0.38396 0.00000
C275 C 0.41604 0.38103 0.35424 0.00000
C276 C 0.46806 0.32348 0.34149 0.00000
C277 C 0.49391 0.25686 0.35845 0.00000
C278 C 0.49423 0.33255 0.31177 0.00000
N279 N 0.46837 0.39917 0.29481 0.00000
N280 N 0.41635 0.45673 0.30757 0.00000
C281 C 0.39019 0.44765 0.33728 0.00000
H282 H 0.48689 0.19847 0.40072 0.00000
H283 H 0.39637 0.29862 0.42292 0.00000
H284 H 0.53273 0.28995 0.30233 0.00000
H285 H 0.35168 0.49025 0.34672 0.00000
C286 C 0.37686 0.47352 0.61102 0.00000
C287 C 0.31931 0.52554 0.62377 0.00000
C288 C 0.25686 0.49391 0.64155 0.00000
C289 C 0.25196 0.41027 0.64658 0.00000
C290 C 0.30951 0.35826 0.63383 0.00000
C291 C 0.37196 0.38988 0.61605 0.00000
C292 C 0.30461 0.27461 0.63885 0.00000
N293 N 0.24216 0.24299 0.65663 0.00000
N294 N 0.18461 0.29501 0.66939 0.00000
C295 C 0.18951 0.37865 0.66436 0.00000
H296 H 0.42308 0.49693 0.59786 0.00000
H297 H 0.32293 0.58746 0.62005 0.00000
H298 H 0.34721 0.23610 0.62942 0.00000
H299 H 0.14691 0.41716 0.67379 0.00000
C300 C 0.13727 0.86134 0.85445 0.00000
C301 C 0.08524 0.80380 0.86720 0.00000
C302 C 0.11139 0.75689 0.89155 0.00000
C303 C 0.18956 0.76753 0.90314 0.00000
C304 C 0.24159 0.82508 0.89039 0.00000
C305 C 0.21544 0.87199 0.86604 0.00000
C306 C 0.31977 0.83573 0.90198 0.00000
N307 N 0.34591 0.78883 0.92633 0.00000
N308 N 0.29388 0.73127 0.93908 0.00000
C309 C 0.21570 0.72063 0.92748 0.00000
H310 H 0.11792 0.89607 0.83643 0.00000
H311 H 0.02737 0.79591 0.85862 0.00000
H312 H 0.35828 0.87833 0.89254 0.00000
H313 H 0.17719 0.67803 0.93692 0.00000
C314 C 0.70948 0.63979 0.12724 0.00000
C315 C 0.76704 0.58776 0.13999 0.00000
C316 C 0.84845 0.61139 0.14155 0.00000
C317 C 0.87231 0.68704 0.13036 0.00000
C318 C 0.81475 0.73907 0.11762 0.00000
C319 C 0.73333 0.71544 0.11606 0.00000
C320 C 0.83861 0.81473 0.10643 0.00000
N321 N 0.92002 0.83836 0.10799 0.00000
N322 N 0.97759 0.78632 0.12074 0.00000
C323 C 0.95373 0.71067 0.13192 0.00000
H324 H 0.64921 0.62230 0.12609 0.00000
H325 H 0.74938 0.53175 0.14827 0.00000
H326 H 0.79600 0.85324 0.09700 0.00000
H327 H 0.99634 0.67216 0.14136 0.00000
C328 C 0.05236 0.46793 0.26833 0.00000
C329 C 0.07181 0.49210 0.29758 0.00000
C330 C 0.15308 0.50062 0.30609 0.00000
C331 C 0.21489 0.48498 0.28535 0.00000
C332 C 0.19543 0.46081 0.25609 0.00000
C333 C 0.11416 0.45228 0.24758 0.00000
C334 C 0.25724 0.44516 0.23534 0.00000
N335 N 0.33850 0.45368 0.24385 0.00000
N336 N 0.35796 0.47786 0.27311 0.00000
C337 C 0.29615 0.49350 0.29386 0.00000
H338 H 0.99220 0.46161 0.26203 0.00000
H339 H 0.02606 0.50368 0.31295 0.00000
H340 H 0.24283 0.42727 0.21368 0.00000
H341 H 0.31056 0.51139 0.31551 0.00000
C342 C 0.54630 0.96783 0.21599 0.00000
C343 C 0.57048 0.98729 0.24525 0.00000
C344 C 0.65302 0.99116 0.25243 0.00000
C345 C 0.71139 0.97555 0.23036 0.00000
C346 C 0.68722 0.95609 0.20110 0.00000
C347 C 0.60468 0.95223 0.19391 0.00000
C348 C 0.74560 0.94048 0.17902 0.00000
N349 N 0.82814 0.94434 0.18621 0.00000
N350 N 0.85231 0.96381 0.21547 0.00000
C351 C 0.79394 0.97941 0.23754 0.00000
H352 H 0.48520 0.96497 0.21067 0.00000
H353 H 0.52726 0.99885 0.26159 0.00000
H354 H 0.72771 0.92607 0.15736 0.00000
H355 H 0.81183 0.99382 0.25920 0.00000
C356 C 0.03345 0.60911 0.79712 0.00000
C357 C 0.05292 0.63328 0.76786 0.00000
C358 C 0.99115 0.65302 0.74757 0.00000
C359 C 0.90993 0.64859 0.75654 0.00000
C360 C 0.89047 0.62442 0.78580 0.00000
C361 C 0.95223 0.60468 0.80609 0.00000
C362 C 0.80923 0.61999 0.79477 0.00000
N363 N 0.74747 0.63973 0.77449 0.00000
N364 N 0.76695 0.66390 0.74523 0.00000
C365 C 0.84817 0.66833 0.73626 0.00000
H366 H 0.07917 0.59450 0.81214 0.00000
H367 H 0.11305 0.63656 0.76122 0.00000
H368 H 0.79483 0.60210 0.81643 0.00000
H369 H 0.86258 0.68622 0.71460 0.00000
C370 C 0.91931 0.47022 0.05006 0.00000
C371 C 0.89512 0.48968 0.02081 0.00000
C372 C 0.95228 0.49117 0.99758 0.00000
C373 C 0.03362 0.47321 0.00360 0.00000
C374 C 0.05781 0.45375 0.03286 0.00000
C375 C 0.00010 0.45225 0.05609 0.00000
C376 C 0.13916 0.43579 0.03889 0.00000
N377 N 0.19631 0.43728 0.01566 0.00000
N378 N 0.17212 0.45675 0.98640 0.00000
C379 C 0.09078 0.47471 0.98037 0.00000
H380 H 0.87699 0.46911 0.06726 0.00000
H381 H 0.83490 0.50298 0.01634 0.00000
H382 H 0.15706 0.42138 0.06054 0.00000
H383 H 0.07288 0.48911 0.95871 0.00000
C384 C 0.07129 0.60811 0.50574 0.00000
C385 C 0.04710 0.62759 0.53499 0.00000
C386 C 0.10465 0.65306 0.55609 0.00000
C387 C 0.18640 0.65906 0.54793 0.00000
C388 C 0.21059 0.63958 0.51867 0.00000
C389 C 0.15304 0.61411 0.49758 0.00000
C390 C 0.29235 0.64558 0.51051 0.00000
N391 N 0.34990 0.67105 0.53160 0.00000
N392 N 0.32570 0.69053 0.56086 0.00000
C393 C 0.24395 0.68453 0.56902 0.00000
H394 H 0.02869 0.58926 0.49013 0.00000
H395 H 0.98658 0.62314 0.54104 0.00000
H396 H 0.31025 0.63117 0.48886 0.00000
H397 H 0.22604 0.69894 0.59067 0.00000
C398 C 0.71483 0.11949 0.46476 0.00000
C399 C 0.69536 0.14368 0.49401 0.00000
C400 C 0.61411 0.15304 0.50242 0.00000
C401 C 0.55234 0.13821 0.48157 0.00000
C402 C 0.57181 0.11402 0.45232 0.00000
C403 C 0.65306 0.10466 0.44391 0.00000
C404 C 0.51003 0.09919 0.43147 0.00000
N405 N 0.42878 0.10855 0.43988 0.00000
N406 N 0.40931 0.13274 0.46914 0.00000
C407 C 0.47109 0.14757 0.48998 0.00000
H408 H 0.77498 0.11255 0.45854 0.00000
H409 H 0.74109 0.15466 0.50945 0.00000
H410 H 0.52445 0.08128 0.40982 0.00000
H411 H 0.45668 0.16548 0.51164 0.00000
C412 C 0.39393 0.13108 0.73046 0.00000
C413 C 0.41811 0.15054 0.70121 0.00000
C414 C 0.50062 0.15308 0.69390 0.00000
C415 C 0.55897 0.13617 0.71586 0.00000
C416 C 0.53479 0.11671 0.74512 0.00000
C417 C 0.45228 0.11416 0.75242 0.00000
C418 C 0.59314 0.09979 0.76707 0.00000
N419 N 0.67566 0.10233 0.75977 0.00000
N420 N 0.69983 0.12179 0.73051 0.00000
C421 C 0.64148 0.13871 0.70855 0.00000
H422 H 0.33285 0.12919 0.73587 0.00000
H423 H 0.37492 0.16306 0.68495 0.00000
H424 H 0.57525 0.08538 0.78873 0.00000
H425 H 0.65938 0.15312 0.68690 0.00000
C426 C 0.55299 0.96905 0.98180 0.00000
C427 C 0.53353 0.99323 0.95254 0.00000
C428 C 0.45226 0.00010 0.94391 0.00000
C429 C 0.39044 0.98388 0.96453 0.00000
C430 C 0.40989 0.95970 0.99379 0.00000
C431 C 0.49117 0.95229 0.00242 0.00000
C432 C 0.34807 0.94293 0.01442 0.00000
N433 N 0.26679 0.95034 0.00578 0.00000
N434 N 0.24734 0.97453 0.97652 0.00000
C435 C 0.30916 0.99129 0.95590 0.00000
H436 H 0.61316 0.96357 0.98819 0.00000
H437 H 0.57930 0.00564 0.93727 0.00000
H438 H 0.36248 0.92503 0.03608 0.00000
H439 H 0.29475 0.00919 0.93424 0.00000
C440 C 0.31032 0.11090 0.08986 0.00000
C441 C 0.24903 0.16903 0.09290 0.00000
C442 C 0.26367 0.24023 0.10914 0.00000
C443 C 0.33960 0.25329 0.12233 0.00000
C444 C 0.40089 0.19516 0.11928 0.00000
C445 C 0.38625 0.12396 0.10305 0.00000
C446 C 0.47683 0.20823 0.13247 0.00000
N447 N 0.49146 0.27943 0.14871 0.00000
N448 N 0.43016 0.33756 0.15175 0.00000
C449 C 0.35424 0.32449 0.13856 0.00000
H450 H 0.29949 0.05819 0.07785 0.00000
H451 H 0.19282 0.15936 0.08314 0.00000
H452 H 0.52220 0.16520 0.13022 0.00000
H453 H 0.30887 0.36753 0.14081 0.00000
C454 C 0.90091 0.69906 0.39018 0.00000
C455 C 0.84278 0.76036 0.38713 0.00000
C456 C 0.86509 0.84163 0.39087 0.00000
C457 C 0.94552 0.86161 0.39765 0.00000
C458 C 0.00365 0.80032 0.40069 0.00000
C459 C 0.98135 0.71904 0.39695 0.00000
C460 C 0.08410 0.82030 0.40747 0.00000
N461 N 0.10641 0.90157 0.41121 0.00000
N462 N 0.04826 0.96286 0.40817 0.00000
C463 C 0.96783 0.94288 0.40139 0.00000
H464 H 0.88440 0.63890 0.38741 0.00000
H465 H 0.78323 0.74557 0.38212 0.00000
H466 H 0.12713 0.77492 0.40972 0.00000
H467 H 0.92480 0.98826 0.39914 0.00000
C468 C 0.80038 0.00388 0.59970 0.00000
C469 C 0.86167 0.94575 0.60274 0.00000
C470 C 0.84163 0.86509 0.60913 0.00000
C471 C 0.76030 0.84256 0.61247 0.00000
C472 C 0.69900 0.90069 0.60943 0.00000
C473 C 0.71904 0.98135 0.60305 0.00000
C474 C 0.61766 0.87816 0.61277 0.00000
N475 N 0.59762 0.79750 0.61916 0.00000
N476 N 0.65892 0.73937 0.62220 0.00000
C477 C 0.74026 0.76190 0.61885 0.00000
H478 H 0.81521 0.06359 0.59498 0.00000
H479 H 0.92189 0.96242 0.60027 0.00000
H480 H 0.57229 0.92120 0.61052 0.00000
H481 H 0.78563 0.71886 0.62110 0.00000
C482 C 0.60154 0.30037 0.84950 0.00000
C483 C 0.65967 0.36167 0.85255 0.00000
C484 C 0.74022 0.34167 0.85913 0.00000
C485 C 0.76264 0.26038 0.86268 0.00000
C486 C 0.70451 0.19908 0.85963 0.00000
C487 C 0.62396 0.21907 0.85304 0.00000
C488 C 0.72692 0.11777 0.86317 0.00000
N489 N 0.80747 0.09777 0.86976 0.00000
N490 N 0.86560 0.15908 0.87281 0.00000
C491 C 0.84318 0.24038 0.86927 0.00000
H492 H 0.54192 0.31518 0.84462 0.00000
H493 H 0.64308 0.42187 0.84992 0.00000
H494 H 0.68389 0.07239 0.86092 0.00000
H495 H 0.88622 0.28575 0.87152 0.00000
C496 C 0.34076 0.84479 0.35730 0.00000
C497 C 0.39889 0.90609 0.35426 0.00000
C498 C 0.48135 0.88623 0.35305 0.00000
C499 C 0.50568 0.80507 0.35489 0.00000
C500 C 0.44755 0.74377 0.35793 0.00000
C501 C 0.36509 0.76363 0.35914 0.00000
C502 C 0.47188 0.66260 0.35977 0.00000
N503 N 0.55433 0.64274 0.35856 0.00000
N504 N 0.61246 0.70405 0.35552 0.00000
C505 C 0.58813 0.78521 0.35368 0.00000
H506 H 0.27972 0.85949 0.35820 0.00000
H507 H 0.38088 0.96618 0.35290 0.00000
H508 H 0.42885 0.61722 0.36202 0.00000
H509 H 0.63116 0.83059 0.35143 0.00000
C510 C 0.74362 0.44740 0.64283 0.00000
C511 C 0.80492 0.50553 0.64588 0.00000
C512 C 0.88623 0.48135 0.64695 0.00000
C513 C 0.90624 0.39903 0.64498 0.00000
C514 C 0.84493 0.34091 0.64194 0.00000
C515 C 0.76363 0.36509 0.64086 0.00000
C516 C 0.86493 0.25859 0.63997 0.00000
N517 N 0.94624 0.23440 0.64104 0.00000
N518 N 0.00755 0.29254 0.64408 0.00000
C519 C 0.98754 0.37485 0.64605 0.00000
H520 H 0.68343 0.46530 0.64204 0.00000
H521 H 0.79012 0.56647 0.64734 0.00000
H522 H 0.81955 0.21556 0.63771 0.00000
H523 H 0.03292 0.41788 0.64831 0.00000
C524 C 0.15224 0.36465 0.86841 0.00000
C525 C 0.21037 0.30336 0.86537 0.00000
C526 C 0.24023 0.26367 0.89086 0.00000
C527 C 0.21195 0.28527 0.91940 0.00000
C528 C 0.15382 0.34656 0.92244 0.00000
C529 C 0.12397 0.38625 0.89695 0.00000
C530 C 0.12555 0.36816 0.95098 0.00000
N531 N 0.15540 0.32846 0.97647 0.00000
N532 N 0.21354 0.26717 0.97343 0.00000
C533 C 0.24181 0.24557 0.94489 0.00000
H534 H 0.13013 0.39404 0.84954 0.00000
H535 H 0.23130 0.28737 0.84424 0.00000
H536 H 0.08252 0.41353 0.95324 0.00000
H537 H 0.28484 0.20020 0.94263 0.00000
C538 C 0.29746 0.60013 0.13875 0.00000
C539 C 0.35876 0.65826 0.13571 0.00000
C540 C 0.34167 0.74022 0.14087 0.00000
C541 C 0.26329 0.76405 0.14908 0.00000
C542 C 0.20199 0.70592 0.15212 0.00000
C543 C 0.21907 0.62396 0.14695 0.00000
C544 C 0.12359 0.72975 0.16032 0.00000
N545 N 0.10650 0.81171 0.16549 0.00000
N546 N 0.16781 0.86985 0.16244 0.00000
C547 C 0.24620 0.84601 0.15424 0.00000
H548 H 0.31011 0.53946 0.13493 0.00000
H549 H 0.41680 0.64062 0.12963 0.00000
H550 H 0.07821 0.68672 0.16257 0.00000
H551 H 0.29158 0.88905 0.15199 0.00000
C552 C 0.80501 0.23688 0.25576 0.00000
C553 C 0.84693 0.27880 0.23326 0.00000
C554 C 0.82888 0.36026 0.22750 0.00000
C555 C 0.76891 0.39981 0.24424 0.00000
C556 C 0.72699 0.35790 0.26674 0.00000
C557 C 0.74504 0.27643 0.27250 0.00000
C558 C 0.66702 0.39745 0.28348 0.00000
N559 N 0.64897 0.47891 0.27772 0.00000
N560 N 0.69090 0.52083 0.25522 0.00000
C561 C 0.75087 0.48128 0.23848 0.00000
H562 H 0.81837 0.17657 0.26002 0.00000
H563 H 0.89133 0.24952 0.22087 0.00000
H564 H 0.63599 0.36642 0.30013 0.00000
H565 H 0.78190 0.51231 0.22183 0.00000
C566 C 0.26336 0.72576 0.75773 0.00000
C567 C 0.30528 0.76768 0.78022 0.00000
C568 C 0.36027 0.82888 0.77249 0.00000
C569 C 0.37333 0.84816 0.74226 0.00000
C570 C 0.33141 0.80624 0.71977 0.00000
C571 C 0.27643 0.74504 0.72750 0.00000
C572 C 0.34448 0.82552 0.68954 0.00000
N573 N 0.39946 0.88672 0.68180 0.00000
N574 N 0.44138 0.92865 0.70430 0.00000
C575 C 0.42832 0.90937 0.73453 0.00000
H576 H 0.22266 0.68045 0.76345 0.00000
H577 H 0.29561 0.75341 0.80260 0.00000
H578 H 0.31345 0.79448 0.67288 0.00000
H579 H 0.45935 0.94040 0.75118 0.00000
C580 C 0.81845 0.90324 0.00010 0.00000
C581 C 0.86036 0.86132 0.97780 0.00000
C582 C 0.86027 0.77645 0.97751 0.00000
C583 C 0.81827 0.73349 0.99990 0.00000
C584 C 0.77636 0.77540 0.02221 0.00000
C585 C 0.77645 0.86027 0.02250 0.00000
C586 C 0.73436 0.73243 0.04441 0.00000
N587 N 0.73427 0.64756 0.04412 0.00000
N588 N 0.77618 0.60565 0.02162 0.00000
C589 C 0.81818 0.64861 0.99990 0.00000
H590 H 0.81852 0.96607 0.00010 0.00000
H591 H 0.89146 0.89313 0.96136 0.00000
H592 H 0.70333 0.76346 0.06107 0.00000
H593 H 0.84921 0.61758 0.98276 0.00000
C594 C 0.29391 0.20244 0.49859 0.00000
C595 C 0.25200 0.24435 0.47609 0.00000
C596 C 0.24503 0.32886 0.47750 0.00000
C597 C 0.27998 0.37145 0.50141 0.00000
C598 C 0.32189 0.32954 0.52391 0.00000
C599 C 0.32886 0.24503 0.52250 0.00000
C600 C 0.35685 0.37213 0.54783 0.00000
N601 N 0.34988 0.45663 0.54924 0.00000
N602 N 0.30796 0.49855 0.52674 0.00000
C603 C 0.27301 0.45596 0.50283 0.00000
H604 H 0.29907 0.13988 0.49754 0.00000
H605 H 0.22612 0.21283 0.45839 0.00000
H606 H 0.38788 0.34110 0.56448 0.00000
H607 H 0.24199 0.48698 0.48617 0.00000
loop_
_geom_bond_atom_site_label_1
_geom_bond_atom_site_label_2
_geom_bond_distance
_geom_bond_site_symmetry_2
_ccdc_geom_bond_type
C0 O19 1.282 . A
C0 O20 1.233 . A
C1 O11 1.291 . A
C1 O12 1.274 . A
Zn2 O6 1.930 1_455 S
Zn2 O18 1.948 . S
Zn2 O20 2.053 . S
Zn2 O22 2.212 1_455 S
Zn2 O25 1.929 . S
Zn3 O12 1.931 . S
Zn3 O16 1.950 . S
Zn3 O18 1.938 . S
Zn3 O19 1.954 . S
Zn4 O13 2.120 1_455 S
Zn4 O18 1.992 . S
Zn4 O21 1.988 1_455 S
Zn4 O24 2.121 . S
Zn5 O7 1.932 . S
Zn5 O14 1.951 . S
Zn5 O15 2.020 . S
Zn5 O18 1.885 1_655 S
O6 C10 1.259 . A
O7 C10 1.301 . A
C8 O13 1.205 . A
C8 O14 1.262 . A
C9 O21 1.288 . A
C9 O22 1.229 . A
O11 H23 0.839 . S
O15 C26 1.267 1_655 A
O16 C26 1.213 . A
C17 O24 1.171 . A
C17 O25 1.333 . A
C27 O46 1.282 . A
C27 O47 1.233 . A
C28 O38 1.291 . A
C28 O39 1.274 . A
Zn29 O33 1.930 . S
Zn29 O45 1.948 . S
Zn29 O47 2.053 1_545 S
Zn29 O49 2.212 . S
Zn29 O52 1.929 . S
Zn30 O39 1.931 . S
Zn30 O43 1.950 1_565 S
Zn30 O45 1.938 1_565 S
Zn30 O46 1.954 . S
Zn31 O40 2.120 . S
Zn31 O45 1.992 . S
Zn31 O48 1.988 . S
Zn31 O51 2.121 . S
Zn32 O34 1.932 . S
Zn32 O41 1.951 . S
Zn32 O42 2.020 . S
Zn32 O45 1.885 . S
O33 C37 1.259 . A
O34 C37 1.301 . A
C35 O40 1.205 . A
C35 O41 1.262 . A
C36 O48 1.288 . A
C36 O49 1.229 . A
O38 H50 0.839 . S
O42 C53 1.267 . A
O43 C53 1.213 . A
C44 O51 1.171 . A
C44 O52 1.333 . A
C54 O73 1.282 . A
C54 O74 1.233 . A
C55 O65 1.291 . A
C55 O66 1.274 . A
Zn56 O60 1.930 . S
Zn56 O72 1.948 . S
Zn56 O74 2.053 1_455 S
Zn56 O76 2.212 . S
Zn56 O79 1.929 . S
Zn57 O66 1.931 . S
Zn57 O70 1.950 1_655 S
Zn57 O72 1.938 1_655 S
Zn57 O73 1.954 . S
Zn58 O67 2.120 . S
Zn58 O72 1.992 . S
Zn58 O75 1.988 . S
Zn58 O78 2.121 . S
Zn59 O61 1.932 . S
Zn59 O68 1.951 . S
Zn59 O69 2.020 . S
Zn59 O72 1.885 . S
O60 C64 1.259 . A
O61 C64 1.301 . A
C62 O67 1.205 . A
C62 O68 1.262 . A
C63 O75 1.288 . A
C63 O76 1.229 . A
O65 H77 0.839 . S
O69 C80 1.267 . A
O70 C80 1.213 . A
C71 O78 1.171 . A
C71 O79 1.333 . A
C81 O100 1.282 1_455 A
C81 O101 1.233 . A
C82 O92 1.291 . A
C82 O93 1.274 . A
Zn83 O87 1.930 . S
Zn83 O99 1.948 1_455 S
Zn83 O101 2.053 . S
Zn83 O103 2.212 1_455 S
Zn83 O106 1.929 . S
Zn84 O93 1.931 . S
Zn84 O97 1.950 . S
Zn84 O99 1.938 . S
Zn84 O100 1.954 . S
Zn85 O94 2.120 . S
Zn85 O99 1.992 . S
Zn85 O102 1.988 . S
Zn85 O105 2.121 . S
Zn86 O88 1.932 1_655 S
Zn86 O95 1.951 . S
Zn86 O96 2.020 . S
Zn86 O99 1.885 . S
O87 C91 1.259 . A
O88 C91 1.301 . A
C89 O94 1.205 . A
C89 O95 1.262 . A
C90 O102 1.288 . A
C90 O103 1.229 . A
O92 H104 0.839 . S
O96 C107 1.267 . A
O97 C107 1.213 . A
C98 O105 1.171 . A
C98 O106 1.333 1_655 A
C108 O127 1.282 . A
C108 O128 1.233 . A
C109 O119 1.291 . A
C109 O120 1.274 . A
Zn110 O114 1.930 . S
Zn110 O126 1.948 . S
Zn110 O128 2.053 . S
Zn110 O130 2.212 . S
Zn110 O133 1.929 . S
Zn111 O120 1.931 . S
Zn111 O124 1.950 . S
Zn111 O126 1.938 . S
Zn111 O127 1.954 . S
Zn112 O121 2.120 . S
Zn112 O126 1.992 . S
Zn112 O129 1.988 . S
Zn112 O132 2.121 . S
Zn113 O115 1.932 . S
Zn113 O122 1.951 . S
Zn113 O123 2.020 . S
Zn113 O126 1.885 . S
O114 C118 1.259 . A
O115 C118 1.301 . A
C116 O121 1.205 . A
C116 O122 1.262 . A
C117 O129 1.288 . A
C117 O130 1.229 . A
O119 H131 0.839 . S
O123 C134 1.267 . A
O124 C134 1.213 . A
C125 O132 1.171 . A
C125 O133 1.333 . A
C135 O154 1.282 . A
C135 O155 1.233 . A
C136 O146 1.291 . A
C136 O147 1.274 . A
Zn137 O141 1.930 . S
Zn137 O153 1.948 . S
Zn137 O155 2.053 . S
Zn137 O157 2.212 . S
Zn137 O160 1.929 . S
Zn138 O147 1.931 . S
Zn138 O151 1.950 . S
Zn138 O153 1.938 . S
Zn138 O154 1.954 . S
Zn139 O148 2.120 . S
Zn139 O153 1.992 . S
Zn139 O156 1.988 . S
Zn139 O159 2.121 . S
Zn140 O142 1.932 . S
Zn140 O149 1.951 . S
Zn140 O150 2.020 . S
Zn140 O153 1.885 . S
O141 C145 1.259 . A
O142 C145 1.301 . A
C143 O148 1.205 . A
C143 O149 1.262 . A
C144 O156 1.288 . A
C144 O157 1.229 . A
O146 H158 0.839 . S
O150 C161 1.267 . A
O151 C161 1.213 . A
C152 O159 1.171 . A
C152 O160 1.333 . A
C162 O181 1.282 . A
C162 O182 1.233 . A
C163 O173 1.291 . A
C163 O174 1.274 . A
Zn164 O168 1.930 1_545 S
Zn164 O180 1.948 . S
Zn164 O182 2.053 . S
Zn164 O184 2.212 1_545 S
Zn164 O187 1.929 . S
Zn165 O174 1.931 . S
Zn165 O178 1.950 . S
Zn165 O180 1.938 . S
Zn165 O181 1.954 . S
Zn166 O175 2.120 1_545 S
Zn166 O180 1.992 . S
Zn166 O183 1.988 1_545 S
Zn166 O186 2.121 . S
Zn167 O169 1.932 . S
Zn167 O176 1.951 . S
Zn167 O177 2.020 . S
Zn167 O180 1.885 1_565 S
O168 C172 1.259 . A
O169 C172 1.301 . A
C170 O175 1.205 . A
C170 O176 1.262 . A
C171 O183 1.288 . A
C171 O184 1.229 . A
O173 H185 0.839 . S
O177 C188 1.267 1_565 A
O178 C188 1.213 . A
C179 O186 1.171 . A
C179 O187 1.333 . A
C189 O208 1.282 1_545 A
C189 O209 1.233 . A
C190 O200 1.291 . A
C190 O201 1.274 . A
Zn191 O195 1.930 . S
Zn191 O207 1.948 1_545 S
Zn191 O209 2.053 . S
Zn191 O211 2.212 1_545 S
Zn191 O214 1.929 . S
Zn192 O201 1.931 . S
Zn192 O205 1.950 . S
Zn192 O207 1.938 . S
Zn192 O208 1.954 . S
Zn193 O202 2.120 . S
Zn193 O207 1.992 . S
Zn193 O210 1.988 . S
Zn193 O213 2.121 . S
Zn194 O196 1.932 1_565 S
Zn194 O203 1.951 . S
Zn194 O204 2.020 . S
Zn194 O207 1.885 . S
O195 C199 1.259 . A
O196 C199 1.301 . A
C197 O202 1.205 . A
C197 O203 1.262 . A
C198 O210 1.288 . A
C198 O211 1.229 . A
O200 H212 0.839 . S
O204 C215 1.267 . A
O205 C215 1.213 . A
C206 O213 1.171 . A
C206 O214 1.333 1_565 A
C216 C217 1.540 . A
C216 C221 1.540 . A
C216 H226 1.140 . S
C217 C218 1.540 . A
C217 H227 1.140 . S
C218 C219 1.540 . A
C219 C220 1.540 . A
C219 C225 1.540 1_545 A
C220 C221 1.540 . A
C220 C222 1.540 . A
C222 N223 1.540 . A
C222 H228 1.140 . S
N223 N224 1.540 1_545 A
N224 C225 1.540 . A
C225 H229 1.140 . S
C230 C231 1.540 1_655 A
C230 C235 1.540 . A
C230 H240 1.140 . S
C231 C232 1.540 1_455 A
C231 H241 1.140 . S
C232 C233 1.540 . A
C233 C234 1.540 . A
C233 C239 1.540 . A
C234 C235 1.540 . A
C234 C236 1.540 . A
C236 N237 1.540 . A
C236 H242 1.140 . S
N237 N238 1.540 . A
N238 C239 1.540 . A
C239 H243 1.140 . S
C244 C245 1.540 . A
C244 C249 1.540 . A
C244 H254 1.140 . S
C245 C246 1.540 . A
C245 H255 1.140 . S
C246 C247 1.540 . A
C247 C248 1.540 . A
C247 C253 1.540 1_565 A
C248 C249 1.540 . A
C248 C250 1.540 . A
C250 N251 1.540 . A
C250 H256 1.140 . S
N251 N252 1.540 1_565 A
N252 C253 1.540 . A
C253 H257 1.140 . S
C258 C259 1.540 . A
C258 C263 1.540 . A
C258 H268 1.140 . S
C259 C260 1.540 . A
C259 H269 1.140 . S
C260 C261 1.540 . A
C261 C262 1.540 . A
C261 C267 1.540 . A
C262 C263 1.540 . A
C262 C264 1.540 . A
C264 N265 1.540 . A
C264 H270 1.140 . S
N265 N266 1.540 . A
N266 C267 1.540 . A
C267 H271 1.140 . S
C272 C273 1.540 . A
C272 C277 1.540 . A
C272 H282 1.140 . S
C273 C274 1.540 . A
C273 H283 1.140 . S
C274 C275 1.540 . A
C275 C276 1.540 . A
C275 C281 1.540 . A
C276 C277 1.540 . A
C276 C278 1.540 . A
C278 N279 1.540 . A
C278 H284 1.140 . S
N279 N280 1.540 . A
N280 C281 1.540 . A
C281 H285 1.140 . S
C286 C287 1.540 . A
C286 C291 1.540 . A
C286 H296 1.140 . S
C287 C288 1.540 . A
C287 H297 1.140 . S
C288 C289 1.540 . A
C289 C290 1.540 . A
C289 C295 1.540 . A
C290 C291 1.540 . A
C290 C292 1.540 . A
C292 N293 1.540 . A
C292 H298 1.140 . S
N293 N294 1.540 . A
N294 C295 1.540 . A
C295 H299 1.140 . S
C300 C301 1.540 . A
C300 C305 1.540 . A
C300 H310 1.140 . S
C301 C302 1.540 . A
C301 H311 1.140 . S
C302 C303 1.540 . A
C303 C304 1.540 . A
C303 C309 1.540 . A
C304 C305 1.540 . A
C304 C306 1.540 . A
C306 N307 1.540 . A
C306 H312 1.140 . S
N307 N308 1.540 . A
N308 C309 1.540 . A
C309 H313 1.140 . S
C314 C315 1.540 . A
C314 C319 1.540 . A
C314 H324 1.140 . S
C315 C316 1.540 . A
C315 H325 1.140 . S
C316 C317 1.540 . A
C317 C318 1.540 . A
C317 C323 1.540 . A
C318 C319 1.540 . A
C318 C320 1.540 . A
C320 N321 1.540 . A
C320 H326 1.140 . S
N321 N322 1.540 . A
N322 C323 1.540 . A
C323 H327 1.140 . S
C328 C329 1.540 . A
C328 C333 1.540 . A
C328 H338 1.140 1_455 S
C329 C330 1.540 . A
C329 H339 1.140 . S
C330 C331 1.540 . A
C331 C332 1.540 . A
C331 C337 1.540 . A
C332 C333 1.540 . A
C332 C334 1.540 . A
C334 N335 1.540 . A
C334 H340 1.140 . S
N335 N336 1.540 . A
N336 C337 1.540 . A
C337 H341 1.140 . S
C342 C343 1.540 . A
C342 C347 1.540 . A
C342 H352 1.140 . S
C343 C344 1.540 . A
C343 H353 1.140 . S
C344 C345 1.540 . A
C345 C346 1.540 . A
C345 C351 1.540 . A
C346 C347 1.540 . A
C346 C348 1.540 . A
C348 N349 1.540 . A
C348 H354 1.140 . S
N349 N350 1.540 . A
N350 C351 1.540 . A
C351 H355 1.140 . S
C356 C357 1.540 . A
C356 C361 1.540 1_455 A
C356 H366 1.140 . S
C357 C358 1.540 1_455 A
C357 H367 1.140 . S
C358 C359 1.540 . A
C359 C360 1.540 . A
C359 C365 1.540 . A
C360 C361 1.540 . A
C360 C362 1.540 . A
C362 N363 1.540 . A
C362 H368 1.140 . S
N363 N364 1.540 . A
N364 C365 1.540 . A
C365 H369 1.140 . S
C370 C371 1.540 . A
C370 C375 1.530 1_655 A
C370 H380 1.140 . S
C371 C372 1.540 1_554 A
C371 H381 1.140 . S
C372 C373 1.540 1_656 A
C373 C374 1.540 . A
C373 C379 1.540 1_554 A
C374 C375 1.547 . A
C374 C376 1.540 . A
C376 N377 1.540 . A
C376 H382 1.140 . S
N377 N378 1.540 1_554 A
N378 C379 1.540 . A
C379 H383 1.140 . S
C384 C385 1.540 . A
C384 C389 1.540 . A
C384 H394 1.140 . S
C385 C386 1.540 . A
C385 H395 1.140 1_455 S
C386 C387 1.540 . A
C387 C388 1.540 . A
C387 C393 1.540 . A
C388 C389 1.540 . A
C388 C390 1.540 . A
C390 N391 1.540 . A
C390 H396 1.140 . S
N391 N392 1.540 . A
N392 C393 1.540 . A
C393 H397 1.140 . S
C398 C399 1.540 . A
C398 C403 1.540 . A
C398 H408 1.140 . S
C399 C400 1.540 . A
C399 H409 1.140 . S
C400 C401 1.540 . A
C401 C402 1.540 . A
C401 C407 1.540 . A
C402 C403 1.540 . A
C402 C404 1.540 . A
C404 N405 1.540 . A
C404 H410 1.140 . S
N405 N406 1.540 . A
N406 C407 1.540 . A
C407 H411 1.140 . S
C412 C413 1.540 . A
C412 C417 1.540 . A
C412 H422 1.140 . S
C413 C414 1.540 . A
C413 H423 1.140 . S
C414 C415 1.540 . A
C415 C416 1.540 . A
C415 C421 1.540 . A
C416 C417 1.540 . A
C416 C418 1.540 . A
C418 N419 1.540 . A
C418 H424 1.140 . S
N419 N420 1.540 . A
N420 C421 1.540 . A
C421 H425 1.140 . S
C426 C427 1.540 . A
C426 C431 1.540 1_556 A
C426 H436 1.140 . S
C427 C428 1.539 1_565 A
C427 H437 1.140 1_565 S
C428 C429 1.538 1_545 A
C429 C430 1.540 . A
C429 C435 1.540 . A
C430 C431 1.540 1_556 A
C430 C432 1.540 1_556 A
C432 N433 1.540 . A
C432 H438 1.140 . S
N433 N434 1.540 1_554 A
N434 C435 1.540 . A
C435 H439 1.140 1_565 S
C440 C441 1.540 . A
C440 C445 1.540 . A
C440 H450 1.140 . S
C441 C442 1.540 . A
C441 H451 1.140 . S
C442 C443 1.540 . A
C443 C444 1.540 . A
C443 C449 1.540 . A
C444 C445 1.540 . A
C444 C446 1.540 . A
C446 N447 1.540 . A
C446 H452 1.140 . S
N447 N448 1.540 . A
N448 C449 1.540 . A
C449 H453 1.140 . S
C454 C455 1.540 . A
C454 C459 1.540 . A
C454 H464 1.140 . S
C455 C456 1.540 . A
C455 H465 1.140 . S
C456 C457 1.540 . A
C457 C458 1.540 1_655 A
C457 C463 1.540 . A
C458 C459 1.540 1_455 A
C458 C460 1.540 . A
C460 N461 1.540 . A
C460 H466 1.140 . S
N461 N462 1.540 . A
N462 C463 1.540 1_455 A
C463 H467 1.140 . S
C468 C469 1.540 1_545 A
C468 C473 1.540 1_545 A
C468 H478 1.140 . S
C469 C470 1.540 . A
C469 H479 1.140 . S
C470 C471 1.540 . A
C471 C472 1.540 . A
C471 C477 1.540 . A
C472 C473 1.540 . A
C472 C474 1.540 . A
C474 N475 1.540 . A
C474 H480 1.140 . S
N475 N476 1.540 . A
N476 C477 1.540 . A
C477 H481 1.140 . S
C482 C483 1.540 . A
C482 C487 1.540 . A
C482 H492 1.140 . S
C483 C484 1.540 . A
C483 H493 1.140 . S
C484 C485 1.540 . A
C485 C486 1.540 . A
C485 C491 1.540 . A
C486 C487 1.540 . A
C486 C488 1.540 . A
C488 N489 1.540 . A
C488 H494 1.140 . S
N489 N490 1.540 . A
N490 C491 1.540 . A
C491 H495 1.140 . S
C496 C497 1.540 . A
C496 C501 1.540 . A
C496 H506 1.140 . S
C497 C498 1.540 . A
C497 H507 1.140 . S
C498 C499 1.540 . A
C499 C500 1.540 . A
C499 C505 1.540 . A
C500 C501 1.540 . A
C500 C502 1.540 . A
C502 N503 1.540 . A
C502 H508 1.140 . S
N503 N504 1.540 . A
N504 C505 1.540 . A
C505 H509 1.140 . S
C510 C511 1.540 . A
C510 C515 1.540 . A
C510 H520 1.140 . S
C511 C512 1.540 . A
C511 H521 1.140 . S
C512 C513 1.540 . A
C513 C514 1.540 . A
C513 C519 1.540 . A
C514 C515 1.540 . A
C514 C516 1.540 . A
C516 N517 1.540 . A
C516 H522 1.140 . S
N517 N518 1.540 1_655 A
N518 C519 1.540 1_455 A
C519 H523 1.140 1_655 S
C524 C525 1.540 . A
C524 C529 1.540 . A
C524 H534 1.140 . S
C525 C526 1.540 . A
C525 H535 1.140 . S
C526 C527 1.540 . A
C527 C528 1.540 . A
C527 C533 1.540 . A
C528 C529 1.540 . A
C528 C530 1.540 . A
C530 N531 1.540 . A
C530 H536 1.140 . S
N531 N532 1.540 . A
N532 C533 1.540 . A
C533 H537 1.140 . S
C538 C539 1.540 . A
C538 C543 1.540 . A
C538 H548 1.140 . S
C539 C540 1.540 . A
C539 H549 1.140 . S
C540 C541 1.540 . A
C541 C542 1.540 . A
C541 C547 1.540 . A
C542 C543 1.540 . A
C542 C544 1.540 . A
C544 N545 1.540 . A
C544 H550 1.140 . S
N545 N546 1.540 . A
N546 C547 1.540 . A
C547 H551 1.140 . S
C552 C553 1.540 . A
C552 C557 1.540 . A
C552 H562 1.140 . S
C553 C554 1.540 . A
C553 H563 1.140 . S
C554 C555 1.540 . A
C555 C556 1.540 . A
C555 C561 1.540 . A
C556 C557 1.540 . A
C556 C558 1.540 . A
C558 N559 1.540 . A
C558 H564 1.140 . S
N559 N560 1.540 . A
N560 C561 1.540 . A
C561 H565 1.140 . S
C566 C567 1.540 . A
C566 C571 1.540 . A
C566 H576 1.140 . S
C567 C568 1.540 . A
C567 H577 1.140 . S
C568 C569 1.540 . A
C569 C570 1.540 . A
C569 C575 1.540 . A
C570 C571 1.540 . A
C570 C572 1.540 . A
C572 N573 1.540 . A
C572 H578 1.140 . S
N573 N574 1.540 . A
N574 C575 1.540 . A
C575 H579 1.140 . S
C580 C581 1.533 1_554 A
C580 C585 1.547 . A
C580 H590 1.140 . S
C581 C582 1.540 . A
C581 H591 1.140 . S
C582 C583 1.547 . A
C583 C584 1.533 1_556 A
C583 C589 1.540 . A
C584 C585 1.540 . A
C584 C586 1.540 . A
C586 N587 1.540 . A
C586 H592 1.140 . S
N587 N588 1.540 . A
N588 C589 1.523 1_554 A
C589 H593 1.157 . S
C594 C595 1.540 . A
C594 C599 1.540 . A
C594 H604 1.140 . S
C595 C596 1.540 . A
C595 H605 1.140 . S
C596 C597 1.540 . A
C597 C598 1.540 . A
C597 C603 1.540 . A
C598 C599 1.540 . A
C598 C600 1.540 . A
C600 N601 1.540 . A
C600 H606 1.140 . S
N601 N602 1.540 . A
N602 C603 1.540 . A
C603 H607 1.140 . S
C218 C199 1.292 . S
C221 C8 1.265 . S
C232 C118 1.292 1_655 S
C235 C35 1.266 . S
C246 C145 1.292 1_565 S
C249 C62 1.265 . S
C260 C172 1.292 . S
C263 C89 1.266 . S
C274 C116 1.266 . S
C277 C37 1.292 . S
C288 C64 1.292 . S
C291 C143 1.266 . S
C302 C91 1.292 . S
C305 C170 1.266 . S
C316 C10 1.292 . S
C319 C197 1.266 . S
C330 C134 1.313 . S
C333 C17 1.311 . S
C344 C44 1.311 1_565 S
C347 C215 1.313 . S
C358 C71 1.311 1_655 S
C361 C107 1.313 . S
C372 C98 1.311 . S
C375 C26 1.316 . S
C386 C80 1.313 . S
C389 C125 1.311 . S
C400 C152 1.311 . S
C403 C53 1.313 . S
C414 C161 1.313 . S
C417 C179 1.311 . S
C428 C188 1.316 . S
C431 C206 1.311 . S
C442 C1 1.608 . S
C445 C189 1.563 . S
C456 C28 1.608 . S
C459 C108 1.563 1_655 S
C470 C55 1.608 . S
C473 C135 1.563 1_565 S
C484 C82 1.607 . S
C487 C162 1.562 . S
C498 C27 1.562 . S
C501 C109 1.607 . S
C512 C54 1.562 . S
C515 C136 1.607 . S
C526 C163 1.608 . S
C529 C81 1.563 . S
C540 C190 1.607 . S
C543 C0 1.562 . S
C554 C9 1.825 . S
C557 C36 1.825 . S
C568 C171 1.824 . S
C571 C63 1.824 . S
C582 C90 1.825 . S
C585 C198 1.825 . S
C596 C117 1.824 . S
C599 C144 1.824 . S
