# Generated by pormake.
# Topology wka, (5)-cn, num edge types: 1
# Building blocks:
#     Node 0, Type 0, BuildingBlock: N671, # of connection points: 5
#     Node 1, Type 0, BuildingBlock: N671, # of connection points: 5
#     Node 2, Type 0, BuildingBlock: N671, # of connection points: 5
#     Node 3, Type 0, BuildingBlock: N671, # of connection points: 5
#     Node 4, Type 0, BuildingBlock: N671, # of connection points: 5
#     Node 5, Type 0, BuildingBlock: N671, # of connection points: 5
#     Node 6, Type 0, BuildingBlock: N671, # of connection points: 5
#     Node 7, Type 0, BuildingBlock: N671, # of connection points: 5
#     Node 8, Type 0, BuildingBlock: N671, # of connection points: 5
#     Node 9, Type 0, BuildingBlock: N671, # of connection points: 5
#     Node 10, Type 0, BuildingBlock: N671, # of connection points: 5
#     Node 11, Type 0, BuildingBlock: N671, # of connection points: 5
#     Edge 12, Type (0, 0), BuildingBlock: E128, # of connection points: 2
#     Edge 13, Type (0, 0), BuildingBlock: E128, # of connection points: 2
#     Edge 14, Type (0, 0), BuildingBlock: E128, # of connection points: 2
#     Edge 15, Type (0, 0), BuildingBlock: E128, # of connection points: 2
#     Edge 16, Type (0, 0), BuildingBlock: E128, # of connection points: 2
#     Edge 17, Type (0, 0), BuildingBlock: E128, # of connection points: 2
#     Edge 18, Type (0, 0), BuildingBlock: E128, # of connection points: 2
#     Edge 19, Type (0, 0), BuildingBlock: E128, # of connection points: 2
#     Edge 20, Type (0, 0), BuildingBlock: E128, # of connection points: 2
#     Edge 21, Type (0, 0), BuildingBlock: E128, # of connection points: 2
#     Edge 22, Type (0, 0), BuildingBlock: E128, # of connection points: 2
#     Edge 23, Type (0, 0), BuildingBlock: E128, # of connection points: 2
#     Edge 24, Type (0, 0), BuildingBlock: E128, # of connection points: 2
#     Edge 25, Type (0, 0), BuildingBlock: E128, # of connection points: 2
#     Edge 26, Type (0, 0), BuildingBlock: E128, # of connection points: 2
#     Edge 27, Type (0, 0), BuildingBlock: E128, # of connection points: 2
#     Edge 28, Type (0, 0), BuildingBlock: E128, # of connection points: 2
#     Edge 29, Type (0, 0), BuildingBlock: E128, # of connection points: 2
#     Edge 30, Type (0, 0), BuildingBlock: E128, # of connection points: 2
#     Edge 31, Type (0, 0), BuildingBlock: E128, # of connection points: 2
#     Edge 32, Type (0, 0), BuildingBlock: E128, # of connection points: 2
#     Edge 33, Type (0, 0), BuildingBlock: E128, # of connection points: 2
#     Edge 34, Type (0, 0), BuildingBlock: E128, # of connection points: 2
#     Edge 35, Type (0, 0), BuildingBlock: E128, # of connection points: 2
#     Edge 36, Type (0, 0), BuildingBlock: E128, # of connection points: 2
#     Edge 37, Type (0, 0), BuildingBlock: E128, # of connection points: 2
#     Edge 38, Type (0, 0), BuildingBlock: E128, # of connection points: 2
#     Edge 39, Type (0, 0), BuildingBlock: E128, # of connection points: 2
#     Edge 40, Type (0, 0), BuildingBlock: E128, # of connection points: 2
#     Edge 41, Type (0, 0), BuildingBlock: E128, # of connection points: 2
# Relax obj value: 0.167
# Max RMSD: 0.174
# Mean RMSD: 0.174
data_wka+N671+E128
_symmetry_space_group_name_H-M    P1
_symmetry_Int_Tables_number       1
_symmetry_cell_setting            triclinic
loop_
_symmetry_equiv_pos_as_xyz
'x, y, z'
_cell_length_a     51.063
_cell_length_b     51.072
_cell_length_c     10.760
_cell_angle_alpha  89.998
_cell_angle_beta   90.002
_cell_angle_gamma  119.982
loop_
_atom_site_label
_atom_site_type_symbol
_atom_site_fract_x
_atom_site_fract_y
_atom_site_fract_z
_atom_type_partial_charge
Zn0 Zn 0.35644 0.45123 0.61238 0.00000
Zn1 Zn 0.32406 0.47411 0.40483 0.00000
Zn2 Zn 0.29473 0.40073 0.46239 0.00000
C3 C 0.32797 0.42759 0.23759 0.00000
O4 O 0.31967 0.38355 0.56100 0.00000
O5 O 0.36728 0.42065 0.55707 0.00000
O6 O 0.34993 0.44465 0.79258 0.00000
O7 O 0.33679 0.47681 0.77533 0.00000
C8 C 0.25900 0.43015 0.37543 0.00000
C9 C 0.39283 0.50316 0.48716 0.00000
C10 C 0.34788 0.39343 0.56729 0.00000
O11 O 0.37260 0.49286 0.40273 0.00000
O12 O 0.39204 0.49027 0.58937 0.00000
O13 O 0.31822 0.44214 0.54015 0.00000
O14 O 0.31531 0.40373 0.30463 0.00000
O15 O 0.32825 0.45224 0.26047 0.00000
O16 O 0.27952 0.45771 0.38551 0.00000
O17 O 0.26015 0.40800 0.40459 0.00000
H18 H 0.33231 0.47116 0.70117 0.00000
C19 C 0.33375 0.45451 0.84178 0.00000
Zn20 Zn 0.90524 0.35645 0.77868 0.00000
Zn21 Zn 0.84999 0.32407 0.57119 0.00000
Zn22 Zn 0.89407 0.29474 0.62877 0.00000
C23 C 0.90041 0.32796 0.40392 0.00000
O24 O 0.93617 0.31967 0.72732 0.00000
O25 O 0.94667 0.36728 0.72334 0.00000
O26 O 0.90533 0.34996 0.95889 0.00000
O27 O 0.86003 0.33683 0.94166 0.00000
C28 C 0.82892 0.25902 0.54187 0.00000
C29 C 0.88968 0.39283 0.65342 0.00000
C30 C 0.95449 0.34788 0.73358 0.00000
O31 O 0.87975 0.37260 0.56901 0.00000
O32 O 0.90179 0.39205 0.75563 0.00000
O33 O 0.87614 0.31824 0.70650 0.00000
O34 O 0.91161 0.31530 0.47098 0.00000
O35 O 0.87604 0.32824 0.42681 0.00000
O36 O 0.82187 0.27954 0.55193 0.00000
O37 O 0.85222 0.26017 0.57102 0.00000
H38 H 0.86120 0.33234 0.86751 0.00000
C39 C 0.87930 0.33378 0.00811 0.00000
Zn40 Zn 0.90519 0.54878 0.42622 0.00000
Zn41 Zn 0.84995 0.52591 0.63374 0.00000
Zn42 Zn 0.89398 0.59929 0.57619 0.00000
C43 C 0.90036 0.57242 0.80100 0.00000
O44 O 0.93609 0.61646 0.47760 0.00000
O45 O 0.94662 0.57936 0.48155 0.00000
O46 O 0.90527 0.55536 0.24602 0.00000
O47 O 0.85998 0.52320 0.26325 0.00000
C48 C 0.82884 0.56987 0.66312 0.00000
C49 C 0.88967 0.49684 0.55145 0.00000
C50 C 0.95442 0.60657 0.47133 0.00000
O51 O 0.87974 0.50715 0.63587 0.00000
O52 O 0.90177 0.50974 0.44924 0.00000
O53 O 0.87608 0.55788 0.49843 0.00000
O54 O 0.91155 0.59628 0.73396 0.00000
O55 O 0.87599 0.54777 0.77811 0.00000
O56 O 0.82180 0.54230 0.65304 0.00000
O57 O 0.85213 0.59201 0.63396 0.00000
H58 H 0.86115 0.52885 0.33741 0.00000
C59 C 0.87924 0.54550 0.19681 0.00000
Zn60 Zn 0.35643 0.90523 0.59349 0.00000
Zn61 Zn 0.32406 0.84999 0.80097 0.00000
Zn62 Zn 0.29471 0.89405 0.74342 0.00000
C63 C 0.32794 0.90039 0.96826 0.00000
O64 O 0.31964 0.93615 0.64487 0.00000
O65 O 0.36725 0.94665 0.64884 0.00000
O66 O 0.34994 0.90533 0.41328 0.00000
O67 O 0.33681 0.86004 0.43049 0.00000
C68 C 0.25900 0.82891 0.83030 0.00000
C69 C 0.39283 0.88968 0.71873 0.00000
C70 C 0.34784 0.95446 0.63861 0.00000
O71 O 0.37259 0.87976 0.80313 0.00000
O72 O 0.39204 0.90179 0.61652 0.00000
O73 O 0.31821 0.87613 0.66567 0.00000
O74 O 0.31527 0.91159 0.90121 0.00000
O75 O 0.32823 0.87603 0.94535 0.00000
O76 O 0.27952 0.82187 0.82023 0.00000
O77 O 0.26014 0.85220 0.80116 0.00000
H78 H 0.33233 0.86120 0.50465 0.00000
C79 C 0.33376 0.87930 0.36405 0.00000
Zn80 Zn 0.64359 0.09476 0.09364 0.00000
Zn81 Zn 0.67596 0.15000 0.30111 0.00000
Zn82 Zn 0.70531 0.10595 0.24357 0.00000
C83 C 0.67208 0.09960 0.46841 0.00000
O84 O 0.68038 0.06385 0.14502 0.00000
O85 O 0.63276 0.05335 0.14899 0.00000
O86 O 0.65008 0.09467 0.91343 0.00000
O87 O 0.66320 0.13996 0.93064 0.00000
C88 C 0.74102 0.17108 0.33046 0.00000
C89 C 0.60719 0.11031 0.21887 0.00000
C90 C 0.65217 0.04553 0.13877 0.00000
O91 O 0.62743 0.12024 0.30328 0.00000
O92 O 0.60797 0.09820 0.11667 0.00000
O93 O 0.68180 0.12387 0.16582 0.00000
O94 O 0.68475 0.08840 0.40136 0.00000
O95 O 0.67179 0.12397 0.44551 0.00000
O96 O 0.72049 0.17813 0.32038 0.00000
O97 O 0.73988 0.14779 0.30131 0.00000
H98 H 0.66769 0.13879 0.00480 0.00000
C99 C 0.66625 0.12070 0.86420 0.00000
Zn100 Zn 0.54877 0.64355 0.26022 0.00000
Zn101 Zn 0.52590 0.67592 0.46775 0.00000
Zn102 Zn 0.59929 0.70524 0.41019 0.00000
C103 C 0.57242 0.67201 0.63501 0.00000
O104 O 0.61646 0.68031 0.31160 0.00000
O105 O 0.57936 0.63270 0.31554 0.00000
O106 O 0.55535 0.65005 0.08002 0.00000
O107 O 0.52318 0.66319 0.09726 0.00000
C108 C 0.56986 0.74096 0.49713 0.00000
C109 C 0.49683 0.60716 0.38546 0.00000
C110 C 0.60658 0.65210 0.30532 0.00000
O111 O 0.50714 0.62739 0.46988 0.00000
O112 O 0.50973 0.60795 0.28324 0.00000
O113 O 0.55787 0.68176 0.33244 0.00000
O114 O 0.59628 0.68467 0.56795 0.00000
O115 O 0.54777 0.67173 0.61212 0.00000
O116 O 0.54230 0.72045 0.48706 0.00000
O117 O 0.59201 0.73981 0.46797 0.00000
H118 H 0.52884 0.66766 0.17142 0.00000
C119 C 0.54549 0.66623 0.03082 0.00000
Zn120 Zn 0.09480 0.45124 0.92642 0.00000
Zn121 Zn 0.15004 0.47411 0.13395 0.00000
Zn122 Zn 0.10600 0.40072 0.07641 0.00000
C123 C 0.09963 0.42760 0.30121 0.00000
O124 O 0.06390 0.38356 0.97782 0.00000
O125 O 0.05338 0.42066 0.98174 0.00000
O126 O 0.09472 0.44466 0.74621 0.00000
O127 O 0.14001 0.47681 0.76345 0.00000
C128 C 0.17115 0.43014 0.16336 0.00000
C129 C 0.11033 0.50317 0.05162 0.00000
C130 C 0.04557 0.39344 0.97153 0.00000
O131 O 0.12026 0.49286 0.13606 0.00000
O132 O 0.09822 0.49028 0.94942 0.00000
O133 O 0.12392 0.44214 0.99864 0.00000
O134 O 0.08844 0.40374 0.23417 0.00000
O135 O 0.12400 0.45225 0.27832 0.00000
O136 O 0.17819 0.45770 0.15326 0.00000
O137 O 0.14786 0.40800 0.13420 0.00000
H138 H 0.13884 0.47116 0.83762 0.00000
C139 C 0.12076 0.45451 0.69701 0.00000
Zn140 Zn 0.45121 0.35643 0.76025 0.00000
Zn141 Zn 0.47409 0.32406 0.96779 0.00000
Zn142 Zn 0.40069 0.29474 0.91025 0.00000
C143 C 0.42757 0.32797 0.13505 0.00000
O144 O 0.38352 0.31967 0.81165 0.00000
O145 O 0.42062 0.36727 0.81558 0.00000
O146 O 0.44463 0.34993 0.58005 0.00000
O147 O 0.47679 0.33679 0.59729 0.00000
C148 C 0.43013 0.25901 0.99720 0.00000
C149 C 0.50315 0.39281 0.88546 0.00000
C150 C 0.39340 0.34787 0.80536 0.00000
O151 O 0.49284 0.37258 0.96990 0.00000
O152 O 0.49025 0.39203 0.78325 0.00000
O153 O 0.44211 0.31822 0.83248 0.00000
O154 O 0.40370 0.31530 0.06801 0.00000
O155 O 0.45222 0.32824 0.11216 0.00000
O156 O 0.45769 0.27953 0.98711 0.00000
O157 O 0.40798 0.26016 0.96804 0.00000
H158 H 0.47114 0.33231 0.67146 0.00000
C159 C 0.45448 0.33375 0.53085 0.00000
Zn160 Zn 0.54879 0.90520 0.94588 0.00000
Zn161 Zn 0.52592 0.84997 0.73838 0.00000
Zn162 Zn 0.59932 0.89400 0.79593 0.00000
C163 C 0.57244 0.90037 0.57110 0.00000
O164 O 0.61648 0.93609 0.89450 0.00000
O165 O 0.57938 0.94662 0.89055 0.00000
O166 O 0.55537 0.90528 0.12609 0.00000
O167 O 0.52321 0.86000 0.10886 0.00000
C168 C 0.56989 0.82886 0.70901 0.00000
C169 C 0.49685 0.88968 0.82065 0.00000
C170 C 0.60660 0.95442 0.90077 0.00000
O171 O 0.50716 0.87975 0.73623 0.00000
O172 O 0.50974 0.90178 0.92286 0.00000
O173 O 0.55790 0.87609 0.87368 0.00000
O174 O 0.59630 0.91155 0.63815 0.00000
O175 O 0.54779 0.87600 0.59400 0.00000
O176 O 0.54233 0.82183 0.71909 0.00000
O177 O 0.59204 0.85215 0.73817 0.00000
H178 H 0.52886 0.86117 0.03470 0.00000
C179 C 0.54552 0.87925 0.17530 0.00000
Zn180 Zn 0.64354 0.54875 0.11209 0.00000
Zn181 Zn 0.67592 0.52588 0.90454 0.00000
Zn182 Zn 0.70524 0.59926 0.96208 0.00000
C183 C 0.67200 0.57239 0.73729 0.00000
O184 O 0.68030 0.61643 0.06068 0.00000
O185 O 0.63269 0.57934 0.05677 0.00000
O186 O 0.65005 0.55533 0.29229 0.00000
O187 O 0.66319 0.52317 0.27504 0.00000
C188 C 0.74097 0.56984 0.87512 0.00000
C189 C 0.60715 0.49682 0.98688 0.00000
C190 C 0.65209 0.60655 0.06698 0.00000
O191 O 0.62738 0.50713 0.90245 0.00000
O192 O 0.60793 0.50971 0.08910 0.00000
O193 O 0.68175 0.55785 0.03985 0.00000
O194 O 0.68466 0.59625 0.80433 0.00000
O195 O 0.67172 0.54774 0.76017 0.00000
O196 O 0.72045 0.54228 0.88521 0.00000
O197 O 0.73982 0.59198 0.90428 0.00000
H198 H 0.66767 0.52882 0.20088 0.00000
C199 C 0.66623 0.54548 0.34148 0.00000
Zn200 Zn 0.09477 0.64357 0.27865 0.00000
Zn201 Zn 0.15002 0.67595 0.07118 0.00000
Zn202 Zn 0.10595 0.70528 0.12871 0.00000
C203 C 0.09961 0.67206 0.90388 0.00000
O204 O 0.06385 0.68035 0.22726 0.00000
O205 O 0.05335 0.63274 0.22330 0.00000
O206 O 0.09468 0.65007 0.45886 0.00000
O207 O 0.13998 0.66319 0.44166 0.00000
C208 C 0.17110 0.74099 0.04182 0.00000
C209 C 0.11033 0.60719 0.15343 0.00000
C210 C 0.04553 0.65215 0.23352 0.00000
O211 O 0.12026 0.62742 0.06902 0.00000
O212 O 0.09822 0.60797 0.25564 0.00000
O213 O 0.12388 0.68178 0.20647 0.00000
O214 O 0.08840 0.68472 0.97092 0.00000
O215 O 0.12398 0.67177 0.92678 0.00000
O216 O 0.17815 0.72047 0.05190 0.00000
O217 O 0.14780 0.73985 0.07096 0.00000
H218 H 0.13881 0.66768 0.36750 0.00000
C219 C 0.12071 0.66624 0.50809 0.00000
Zn220 Zn 0.45123 0.09481 0.44598 0.00000
Zn221 Zn 0.47410 0.15005 0.23847 0.00000
Zn222 Zn 0.40070 0.10601 0.29601 0.00000
C223 C 0.42758 0.09965 0.07119 0.00000
O224 O 0.38353 0.06391 0.39458 0.00000
O225 O 0.42064 0.05339 0.39064 0.00000
O226 O 0.44464 0.09472 0.62618 0.00000
O227 O 0.47680 0.14001 0.60896 0.00000
C228 C 0.43012 0.17115 0.20909 0.00000
C229 C 0.50317 0.11034 0.32076 0.00000
C230 C 0.39342 0.04559 0.40085 0.00000
O231 O 0.49286 0.12027 0.23634 0.00000
O232 O 0.49028 0.09823 0.42297 0.00000
O233 O 0.44212 0.12392 0.37377 0.00000
O234 O 0.40372 0.08846 0.13823 0.00000
O235 O 0.45223 0.12401 0.09409 0.00000
O236 O 0.45769 0.17818 0.21918 0.00000
O237 O 0.40797 0.14786 0.23824 0.00000
H238 H 0.47115 0.13884 0.53480 0.00000
C239 C 0.45450 0.12075 0.67540 0.00000
C240 C 0.42504 0.53111 0.48082 0.00000
C241 C 0.43967 0.55848 0.41709 0.00000
C242 C 0.47085 0.57702 0.43076 0.00000
H243 H 0.47936 0.51543 0.69070 0.00000
H244 H 0.50784 0.54374 0.65880 0.00000
C245 C 0.47232 0.54097 0.57255 0.00000
C246 C 0.48693 0.56807 0.50701 0.00000
C247 C 0.44121 0.52256 0.55893 0.00000
H248 H 0.50777 0.58039 0.51435 0.00000
H249 H 0.43113 0.50440 0.60231 0.00000
H250 H 0.42880 0.56433 0.36598 0.00000
N251 N 0.48861 0.53225 0.65076 0.00000
C252 C 0.87909 0.41630 0.61991 0.00000
C253 C 0.89449 0.44770 0.61136 0.00000
C254 C 0.87913 0.46213 0.56857 0.00000
H255 H 0.79375 0.37735 0.51101 0.00000
H256 H 0.79364 0.40576 0.48032 0.00000
C257 C 0.83349 0.41377 0.54179 0.00000
C258 C 0.84884 0.44519 0.53540 0.00000
C259 C 0.84889 0.39944 0.58424 0.00000
H260 H 0.83868 0.45502 0.50846 0.00000
H261 H 0.83895 0.37845 0.58881 0.00000
H262 H 0.91475 0.45893 0.63392 0.00000
N263 N 0.80303 0.39676 0.50651 0.00000
C264 C 0.46257 0.88193 0.82076 0.00000
C265 C 0.44727 0.89235 0.74709 0.00000
C266 C 0.41668 0.88180 0.76963 0.00000
H267 H 0.41137 0.82269 0.07653 0.00000
H268 H 0.38297 0.82282 0.04580 0.00000
C269 C 0.41697 0.85034 0.93732 0.00000
C270 C 0.40189 0.86121 0.86482 0.00000
C271 C 0.44746 0.86085 0.91443 0.00000
H272 H 0.38160 0.85460 0.88020 0.00000
H273 H 0.45782 0.85375 0.96197 0.00000
H274 H 0.45730 0.90618 0.68366 0.00000
N275 N 0.40182 0.82923 0.03213 0.00000
C276 C 0.58352 0.12112 0.24591 0.00000
C277 C 0.55246 0.10521 0.26678 0.00000
C278 C 0.53770 0.12112 0.29724 0.00000
H279 H 0.62073 0.20965 0.28632 0.00000
H280 H 0.59231 0.20973 0.31693 0.00000
C281 C 0.58512 0.16841 0.28743 0.00000
C282 C 0.55398 0.15246 0.30613 0.00000
C283 C 0.59978 0.15248 0.25734 0.00000
H284 H 0.54390 0.16291 0.32494 0.00000
H285 H 0.62059 0.16282 0.24479 0.00000
H286 H 0.54167 0.08424 0.26045 0.00000
N287 N 0.60150 0.20001 0.29827 0.00000
C288 C 0.12103 0.58367 0.12209 0.00000
C289 C 0.10539 0.55235 0.10953 0.00000
C290 C 0.12099 0.53784 0.07082 0.00000
H291 H 0.20781 0.62222 0.03567 0.00000
H292 H 0.20789 0.59380 0.00505 0.00000
C293 C 0.16738 0.58598 0.05601 0.00000
C294 C 0.15176 0.55462 0.04562 0.00000
C295 C 0.15175 0.60039 0.09437 0.00000
H296 H 0.16205 0.54473 0.02138 0.00000
H297 H 0.16187 0.62134 0.10153 0.00000
H298 H 0.08480 0.54123 0.12676 0.00000
N299 N 0.19836 0.60284 0.02875 0.00000
C300 C 0.57840 0.46412 0.99406 0.00000
C301 C 0.55696 0.44589 0.90628 0.00000
C302 C 0.53264 0.41819 0.94346 0.00000
H303 H 0.56258 0.42886 0.33192 0.00000
H304 H 0.53404 0.40052 0.30100 0.00000
C305 C 0.55165 0.42705 0.15444 0.00000
C306 C 0.53000 0.40914 0.06681 0.00000
C307 C 0.57591 0.45463 0.11702 0.00000
H308 H 0.51351 0.39082 0.09108 0.00000
H309 H 0.59059 0.46682 0.17448 0.00000
H310 H 0.55881 0.45209 0.82389 0.00000
N311 N 0.54909 0.41759 0.27846 0.00000
C312 C 0.37674 0.35271 0.74540 0.00000
C313 C 0.36932 0.37413 0.70566 0.00000
C314 C 0.35783 0.37189 0.58603 0.00000
H315 H 0.36295 0.29091 0.49224 0.00000
H316 H 0.35093 0.30259 0.39376 0.00000
C317 C 0.36172 0.32727 0.54689 0.00000
C318 C 0.35385 0.34845 0.50829 0.00000
C319 C 0.37324 0.32961 0.66613 0.00000
H320 H 0.34582 0.34691 0.42928 0.00000
H321 H 0.37865 0.31566 0.69315 0.00000
H322 H 0.37198 0.38975 0.75818 0.00000
N323 N 0.35805 0.30390 0.46737 0.00000
C324 C 0.97547 0.35886 0.79556 0.00000
C325 C 0.00501 0.36831 0.83249 0.00000
C326 C 0.01368 0.37811 0.95445 0.00000
H327 H 0.92463 0.36438 0.06016 0.00000
H328 H 0.94820 0.37602 0.15916 0.00000
C329 C 0.96351 0.36936 0.00010 0.00000
C330 C 0.99292 0.37829 0.03744 0.00000
C331 C 0.95495 0.35966 0.87857 0.00000
H332 H 0.99878 0.38450 0.11896 0.00000
H333 H 0.93539 0.35367 0.85236 0.00000
H334 H 0.01880 0.36808 0.77661 0.00000
N335 N 0.94277 0.37000 0.08403 0.00000
C336 C 0.97512 0.62044 0.40822 0.00000
C337 C 0.00538 0.63325 0.37426 0.00000
C338 C 0.01329 0.63940 0.24915 0.00000
H339 H 0.91973 0.60437 0.12478 0.00000
H340 H 0.94339 0.61639 0.02616 0.00000
C341 C 0.96076 0.61953 0.19353 0.00000
C342 C 0.99110 0.63281 0.16024 0.00000
C343 C 0.95294 0.61336 0.31833 0.00000
H344 H 0.99661 0.63733 0.07726 0.00000
H345 H 0.93276 0.60444 0.34197 0.00000
H346 H 0.02015 0.63767 0.43420 0.00000
N347 N 0.93841 0.61253 0.10316 0.00000
C348 C 0.37313 0.01343 0.41750 0.00000
C349 C 0.37340 0.00511 0.54052 0.00000
C350 C 0.35391 0.97528 0.57659 0.00000
H351 H 0.31385 0.94679 0.20548 0.00000
H352 H 0.30211 0.92303 0.30368 0.00000
C353 C 0.33390 0.96261 0.36754 0.00000
C354 C 0.33461 0.95427 0.49011 0.00000
C355 C 0.35331 0.99239 0.33192 0.00000
H356 H 0.32197 0.93435 0.51461 0.00000
H357 H 0.35306 0.99831 0.25038 0.00000
H358 H 0.38641 0.01926 0.59795 0.00000
N359 N 0.31406 0.94140 0.28107 0.00000
C360 C 0.64876 0.02171 0.08818 0.00000
C361 C 0.62438 0.99720 0.03093 0.00000
C362 C 0.62965 0.98364 0.92874 0.00000
H363 H 0.72771 0.04591 0.93112 0.00000
H364 H 0.71595 0.02214 0.83298 0.00000
C365 C 0.68333 0.01939 0.94110 0.00000
C366 C 0.65894 0.99457 0.88548 0.00000
C367 C 0.67799 0.03290 0.04281 0.00000
H368 H 0.66229 0.98516 0.81829 0.00000
H369 H 0.69405 0.04954 0.08082 0.00000
H370 H 0.60483 0.98994 0.06045 0.00000
N371 N 0.71280 0.03059 0.89591 0.00000
C372 C 0.62489 0.64811 0.24860 0.00000
C373 C 0.62911 0.62499 0.20272 0.00000
C374 C 0.64380 0.62896 0.08908 0.00000
H375 H 0.65657 0.71963 0.02864 0.00000
H376 H 0.66858 0.70793 0.93023 0.00000
C377 C 0.64946 0.67873 0.06782 0.00000
C378 C 0.65408 0.65576 0.02332 0.00000
C379 C 0.63474 0.67467 0.18104 0.00000
H380 H 0.66419 0.65837 0.94842 0.00000
H381 H 0.63143 0.68979 0.21186 0.00000
H382 H 0.62223 0.60712 0.24725 0.00000
N383 N 0.65951 0.70556 0.00010 0.00000
C384 C 0.19986 0.43520 0.19596 0.00000
C385 C 0.20879 0.41974 0.27631 0.00000
C386 C 0.23739 0.43517 0.33079 0.00000
H387 H 0.26193 0.52097 0.14516 0.00000
H388 H 0.28511 0.52108 0.22968 0.00000
C389 C 0.24791 0.48103 0.22296 0.00000
C390 C 0.25654 0.46561 0.30487 0.00000
C391 C 0.21940 0.46556 0.16857 0.00000
H392 H 0.27541 0.47581 0.34280 0.00000
H393 H 0.21334 0.47554 0.11347 0.00000
H394 H 0.19585 0.39938 0.29351 0.00000
N395 N 0.26751 0.51164 0.19578 0.00000
C396 C 0.77307 0.19217 0.36060 0.00000
C397 C 0.78181 0.21626 0.44239 0.00000
C398 C 0.81051 0.22959 0.49603 0.00000
H399 H 0.83512 0.16837 0.31036 0.00000
H400 H 0.85847 0.19175 0.39330 0.00000
C401 C 0.82117 0.19445 0.38733 0.00000
C402 C 0.83000 0.21886 0.46740 0.00000
C403 C 0.79251 0.18116 0.33420 0.00000
H404 H 0.84923 0.22813 0.50236 0.00000
H405 H 0.78627 0.16480 0.28069 0.00000
H406 H 0.76869 0.22339 0.46104 0.00000
N407 N 0.84079 0.18344 0.36014 0.00000
C408 C 0.80834 0.57089 0.72800 0.00000
C409 C 0.78373 0.57519 0.74532 0.00000
C410 C 0.77077 0.57072 0.86319 0.00000
H411 H 0.83328 0.54540 0.03175 0.00000
H412 H 0.81020 0.54558 0.11600 0.00000
C413 C 0.80677 0.55733 0.94420 0.00000
C414 C 0.78249 0.56216 0.96157 0.00000
C415 C 0.81960 0.56175 0.82649 0.00000
H416 H 0.77396 0.55960 0.04015 0.00000
H417 H 0.83580 0.55856 0.81341 0.00000
H418 H 0.77601 0.58098 0.67918 0.00000
N419 N 0.81823 0.54827 0.04347 0.00000
C420 C 0.23169 0.79919 0.84823 0.00000
C421 C 0.21432 0.79198 0.95592 0.00000
C422 C 0.19408 0.76169 0.98288 0.00000
H423 H 0.21602 0.72813 0.64574 0.00000
H424 H 0.19292 0.70483 0.72973 0.00000
C425 C 0.20843 0.74629 0.79400 0.00000
C426 C 0.19149 0.73915 0.90284 0.00000
C427 C 0.22855 0.77652 0.76725 0.00000
H428 H 0.17822 0.71901 0.92233 0.00000
H429 H 0.23998 0.78164 0.69475 0.00000
H430 H 0.21619 0.80715 0.00929 0.00000
N431 N 0.20540 0.72347 0.71267 0.00000
C432 C 0.56577 0.76639 0.52177 0.00000
C433 C 0.57927 0.78737 0.61714 0.00000
C434 C 0.56588 0.80399 0.65651 0.00000
H435 H 0.49148 0.76186 0.38746 0.00000
H436 H 0.49134 0.78495 0.47176 0.00000
C437 C 0.52607 0.77886 0.50408 0.00000
C438 C 0.53936 0.79945 0.60088 0.00000
C439 C 0.53952 0.76238 0.46485 0.00000
H440 H 0.53039 0.81035 0.62877 0.00000
H441 H 0.53093 0.74858 0.40012 0.00000
H442 H 0.59699 0.79028 0.65421 0.00000
N443 N 0.49954 0.77468 0.44710 0.00000
C444 C 0.42776 0.19086 0.14352 0.00000
C445 C 0.42599 0.21700 0.12790 0.00000
C446 C 0.42792 0.22843 0.00836 0.00000
H447 H 0.43915 0.15736 0.82981 0.00000
H448 H 0.43896 0.18046 0.74573 0.00000
C449 C 0.43378 0.18787 0.92208 0.00000
C450 C 0.43149 0.21371 0.90670 0.00000
C451 C 0.43192 0.17657 0.04143 0.00000
H452 H 0.43237 0.22127 0.82723 0.00000
H453 H 0.43346 0.15935 0.05319 0.00000
H454 H 0.42355 0.22672 0.19627 0.00000
N455 N 0.43781 0.17335 0.81927 0.00000
C456 C 0.34527 0.43707 0.14578 0.00000
C457 C 0.32733 0.43409 0.04329 0.00000
C458 C 0.34108 0.45004 0.93481 0.00000
H459 H 0.43262 0.49297 0.09196 0.00000
H460 H 0.43011 0.50081 0.96074 0.00000
C461 C 0.39027 0.47199 0.03281 0.00000
C462 C 0.37230 0.46855 0.92988 0.00000
C463 C 0.37648 0.45611 0.14094 0.00000
H464 H 0.38131 0.47879 0.85670 0.00000
H465 H 0.38819 0.45823 0.21055 0.00000
H466 H 0.30645 0.42162 0.04704 0.00000
N467 N 0.42173 0.49105 0.02785 0.00000
C468 C 0.88977 0.32704 0.09724 0.00000
C469 C 0.89471 0.34061 0.21366 0.00000
C470 C 0.90662 0.33106 0.30863 0.00000
H471 H 0.91125 0.26268 0.07735 0.00000
H472 H 0.92198 0.26534 0.20801 0.00000
C473 C 0.90807 0.29436 0.17069 0.00000
C474 C 0.91345 0.30834 0.28634 0.00000
C475 C 0.89614 0.30388 0.07626 0.00000
H476 H 0.92173 0.30238 0.34972 0.00000
H477 H 0.89237 0.29471 0.99856 0.00000
H478 H 0.89015 0.35585 0.22799 0.00000
N479 N 0.91462 0.27113 0.14925 0.00000
C480 C 0.90953 0.57557 0.90018 0.00000
C481 C 0.89127 0.55403 0.98758 0.00000
C482 C 0.89265 0.56269 0.11149 0.00000
H483 H 0.96193 0.65706 0.04128 0.00000
H484 H 0.95127 0.64919 0.17212 0.00000
C485 C 0.93070 0.61399 0.05964 0.00000
C486 C 0.91202 0.59250 0.14632 0.00000
C487 C 0.92932 0.60527 0.93619 0.00000
H488 H 0.91252 0.59815 0.22883 0.00000
H489 H 0.94170 0.61936 0.87725 0.00000
H490 H 0.87830 0.53412 0.96369 0.00000
N491 N 0.95052 0.64395 0.09566 0.00000
C492 C 0.33875 0.89885 0.04814 0.00000
C493 C 0.33370 0.90181 0.17316 0.00000
C494 C 0.33447 0.88177 0.25928 0.00000
H495 H 0.35315 0.83103 0.97778 0.00000
H496 H 0.35081 0.82059 0.10878 0.00000
C497 C 0.34486 0.85590 0.09476 0.00000
C498 C 0.34030 0.85926 0.21992 0.00000
C499 C 0.34401 0.87588 0.00908 0.00000
H500 H 0.34115 0.84625 0.27815 0.00000
H501 H 0.34696 0.87388 0.92509 0.00000
H502 H 0.32986 0.91695 0.19901 0.00000
N503 N 0.35032 0.83287 0.05536 0.00000
C504 C 0.66745 0.11924 0.75817 0.00000
C505 C 0.66530 0.09761 0.67360 0.00000
C506 C 0.66316 0.10218 0.54701 0.00000
H507 H 0.66562 0.18853 0.60285 0.00000
H508 H 0.66327 0.17814 0.47178 0.00000
C509 C 0.66489 0.14951 0.59105 0.00000
C510 C 0.66327 0.12808 0.50668 0.00000
C511 C 0.66695 0.14486 0.71724 0.00000
H512 H 0.66222 0.13112 0.42203 0.00000
H513 H 0.66800 0.15895 0.77475 0.00000
H514 H 0.66530 0.08035 0.70111 0.00000
N515 N 0.66455 0.17540 0.54991 0.00000
C516 C 0.55075 0.65886 0.93855 0.00000
C517 C 0.56461 0.67266 0.82704 0.00000
C518 C 0.56375 0.65471 0.72758 0.00000
H519 H 0.51306 0.56977 0.93493 0.00000
H520 H 0.52082 0.56712 0.80376 0.00000
C521 C 0.53569 0.60962 0.85239 0.00000
C522 C 0.54912 0.62347 0.74042 0.00000
C523 C 0.53665 0.62759 0.95148 0.00000
H524 H 0.54833 0.61166 0.67316 0.00000
H525 H 0.52781 0.61866 0.02696 0.00000
H526 H 0.57432 0.69358 0.81889 0.00000
N527 N 0.52133 0.57810 0.86535 0.00000
C528 C 0.08869 0.42541 0.40194 0.00000
C529 C 0.11024 0.44496 0.48654 0.00000
C530 C 0.10562 0.43833 0.61318 0.00000
H531 H 0.01838 0.35543 0.55794 0.00000
H532 H 0.02898 0.36324 0.68888 0.00000
C533 C 0.05794 0.39312 0.56938 0.00000
C534 C 0.07979 0.41245 0.65347 0.00000
C535 C 0.06259 0.39982 0.44318 0.00000
H536 H 0.07708 0.40802 0.73792 0.00000
H537 H 0.04816 0.38714 0.38589 0.00000
H538 H 0.12751 0.46222 0.45902 0.00000
N539 N 0.03172 0.36726 0.61074 0.00000
C540 C 0.44041 0.34147 0.21721 0.00000
C541 C 0.43132 0.33117 0.33804 0.00000
C542 C 0.45325 0.33716 0.42826 0.00000
H543 H 0.52911 0.38512 0.16952 0.00000
H544 H 0.53713 0.38274 0.30060 0.00000
C545 C 0.49290 0.36318 0.27595 0.00000
C546 C 0.48372 0.35329 0.39711 0.00000
C547 C 0.47098 0.35711 0.18614 0.00000
H548 H 0.49819 0.35751 0.45818 0.00000
H549 H 0.47676 0.36352 0.10473 0.00000
H550 H 0.41089 0.32044 0.35842 0.00000
N551 N 0.52369 0.37907 0.24466 0.00000
C552 C 0.57484 0.91107 0.47055 0.00000
C553 C 0.55485 0.88997 0.38564 0.00000
C554 C 0.56192 0.89416 0.25929 0.00000
H555 H 0.64731 0.97897 0.31611 0.00000
H556 H 0.63949 0.96837 0.18519 0.00000
C557 C 0.60846 0.94053 0.30394 0.00000
C558 C 0.58866 0.91911 0.21959 0.00000
C559 C 0.60132 0.93632 0.42985 0.00000
H560 H 0.59337 0.92152 0.13535 0.00000
H561 H 0.61430 0.95047 0.48731 0.00000
H562 H 0.53702 0.87328 0.41277 0.00000
N563 N 0.63521 0.96589 0.26315 0.00000
C564 C 0.66530 0.56050 0.42547 0.00000
C565 C 0.66632 0.55568 0.55230 0.00000
C566 C 0.66127 0.57344 0.63665 0.00000
H567 H 0.64872 0.62648 0.34583 0.00000
H568 H 0.64591 0.63433 0.47667 0.00000
C569 C 0.65471 0.60081 0.46707 0.00000
C570 C 0.65525 0.59557 0.59375 0.00000
C571 C 0.65982 0.58310 0.38320 0.00000
H572 H 0.65153 0.60704 0.65061 0.00000
H573 H 0.65959 0.58637 0.29826 0.00000
H574 H 0.67030 0.54080 0.58048 0.00000
N575 N 0.64904 0.62346 0.42435 0.00000
C576 C 0.10273 0.66946 0.82268 0.00000
C577 C 0.09719 0.65890 0.70081 0.00000
C578 C 0.11965 0.67369 0.61133 0.00000
H579 H 0.18339 0.74152 0.87336 0.00000
H580 H 0.19404 0.74400 0.74264 0.00000
C581 C 0.15260 0.70955 0.76565 0.00000
C582 C 0.14716 0.69860 0.64437 0.00000
C583 C 0.13013 0.69479 0.85460 0.00000
H584 H 0.16214 0.70809 0.58447 0.00000
H585 H 0.13341 0.70188 0.93597 0.00000
H586 H 0.07876 0.64218 0.67927 0.00000
N587 N 0.18025 0.73497 0.79807 0.00000
C588 C 0.43700 0.09176 0.97931 0.00000
C589 C 0.43413 0.10683 0.87698 0.00000
C590 C 0.44997 0.10889 0.76832 0.00000
H591 H 0.49232 0.05961 0.92455 0.00000
H592 H 0.50015 0.06995 0.79332 0.00000
C593 C 0.47161 0.08131 0.86583 0.00000
C594 C 0.46827 0.09594 0.76306 0.00000
C595 C 0.45584 0.07935 0.97414 0.00000
H596 H 0.47844 0.09709 0.68976 0.00000
H597 H 0.45789 0.06968 0.04364 0.00000
H598 H 0.42180 0.11540 0.88095 0.00000
N599 N 0.49045 0.06865 0.86054 0.00000
loop_
_geom_bond_atom_site_label_1
_geom_bond_atom_site_label_2
_geom_bond_distance
_geom_bond_site_symmetry_2
_ccdc_geom_bond_type
Zn0 O5 1.991 . S
Zn0 O6 1.968 . S
Zn0 O12 1.928 . S
Zn0 O13 1.929 . S
Zn1 O11 2.165 . S
Zn1 O13 2.095 . S
Zn1 O15 1.986 . S
Zn1 O16 2.003 . S
Zn2 O4 2.152 . S
Zn2 O13 2.019 . S
Zn2 O14 1.962 . S
Zn2 O17 2.073 . S
C3 O14 1.279 . A
C3 O15 1.276 . A
O4 C10 1.268 . A
O5 C10 1.245 . A
O6 C19 1.278 . A
O7 H18 0.840 . S
O7 C19 1.287 . A
C8 O16 1.272 . A
C8 O17 1.203 . A
C9 O11 1.275 . A
C9 O12 1.272 . A
Zn20 O25 1.991 . S
Zn20 O26 1.968 . S
Zn20 O32 1.928 . S
Zn20 O33 1.929 . S
Zn21 O31 2.165 . S
Zn21 O33 2.095 . S
Zn21 O35 1.986 . S
Zn21 O36 2.003 . S
Zn22 O24 2.152 . S
Zn22 O33 2.019 . S
Zn22 O34 1.962 . S
Zn22 O37 2.073 . S
C23 O34 1.279 . A
C23 O35 1.276 . A
O24 C30 1.268 . A
O25 C30 1.245 . A
O26 C39 1.278 1_556 A
O27 H38 0.840 . S
O27 C39 1.287 1_556 A
C28 O36 1.272 . A
C28 O37 1.203 . A
C29 O31 1.275 . A
C29 O32 1.272 . A
Zn40 O45 1.991 . S
Zn40 O46 1.968 . S
Zn40 O52 1.928 . S
Zn40 O53 1.929 . S
Zn41 O51 2.165 . S
Zn41 O53 2.095 . S
Zn41 O55 1.986 . S
Zn41 O56 2.003 . S
Zn42 O44 2.152 . S
Zn42 O53 2.019 . S
Zn42 O54 1.962 . S
Zn42 O57 2.073 . S
C43 O54 1.279 . A
C43 O55 1.276 . A
O44 C50 1.268 . A
O45 C50 1.245 . A
O46 C59 1.278 . A
O47 H58 0.840 . S
O47 C59 1.287 . A
C48 O56 1.272 . A
C48 O57 1.203 . A
C49 O51 1.275 . A
C49 O52 1.272 . A
Zn60 O65 1.991 . S
Zn60 O66 1.968 . S
Zn60 O72 1.928 . S
Zn60 O73 1.929 . S
Zn61 O71 2.165 . S
Zn61 O73 2.095 . S
Zn61 O75 1.986 . S
Zn61 O76 2.003 . S
Zn62 O64 2.152 . S
Zn62 O73 2.019 . S
Zn62 O74 1.962 . S
Zn62 O77 2.073 . S
C63 O74 1.279 . A
C63 O75 1.276 . A
O64 C70 1.268 . A
O65 C70 1.245 . A
O66 C79 1.278 . A
O67 H78 0.840 . S
O67 C79 1.287 . A
C68 O76 1.272 . A
C68 O77 1.203 . A
C69 O71 1.275 . A
C69 O72 1.272 . A
Zn80 O85 1.991 . S
Zn80 O86 1.968 1_554 S
Zn80 O92 1.928 . S
Zn80 O93 1.929 . S
Zn81 O91 2.165 . S
Zn81 O93 2.095 . S
Zn81 O95 1.986 . S
Zn81 O96 2.003 . S
Zn82 O84 2.152 . S
Zn82 O93 2.019 . S
Zn82 O94 1.962 . S
Zn82 O97 2.073 . S
C83 O94 1.279 . A
C83 O95 1.276 . A
O84 C90 1.268 . A
O85 C90 1.245 . A
O86 C99 1.278 . A
O87 H98 0.840 1_556 S
O87 C99 1.287 . A
C88 O96 1.272 . A
C88 O97 1.203 . A
C89 O91 1.275 . A
C89 O92 1.272 . A
Zn100 O105 1.991 . S
Zn100 O106 1.968 . S
Zn100 O112 1.928 . S
Zn100 O113 1.929 . S
Zn101 O111 2.165 . S
Zn101 O113 2.095 . S
Zn101 O115 1.986 . S
Zn101 O116 2.003 . S
Zn102 O104 2.152 . S
Zn102 O113 2.019 . S
Zn102 O114 1.962 . S
Zn102 O117 2.073 . S
C103 O114 1.279 . A
C103 O115 1.276 . A
O104 C110 1.268 . A
O105 C110 1.245 . A
O106 C119 1.278 . A
O107 H118 0.840 . S
O107 C119 1.287 . A
C108 O116 1.272 . A
C108 O117 1.203 . A
C109 O111 1.275 . A
C109 O112 1.272 . A
Zn120 O125 1.991 . S
Zn120 O126 1.968 . S
Zn120 O132 1.928 . S
Zn120 O133 1.929 . S
Zn121 O131 2.165 . S
Zn121 O133 2.095 1_554 S
Zn121 O135 1.986 . S
Zn121 O136 2.003 . S
Zn122 O124 2.152 1_554 S
Zn122 O133 2.019 1_554 S
Zn122 O134 1.962 . S
Zn122 O137 2.073 . S
C123 O134 1.279 . A
C123 O135 1.276 . A
O124 C130 1.268 . A
O125 C130 1.245 . A
O126 C139 1.278 . A
O127 H138 0.840 . S
O127 C139 1.287 . A
C128 O136 1.272 . A
C128 O137 1.203 . A
C129 O131 1.275 . A
C129 O132 1.272 1_554 A
Zn140 O145 1.991 . S
Zn140 O146 1.968 . S
Zn140 O152 1.928 . S
Zn140 O153 1.929 . S
Zn141 O151 2.165 . S
Zn141 O153 2.095 . S
Zn141 O155 1.986 1_556 S
Zn141 O156 2.003 . S
Zn142 O144 2.152 . S
Zn142 O153 2.019 . S
Zn142 O154 1.962 1_556 S
Zn142 O157 2.073 . S
C143 O154 1.279 . A
C143 O155 1.276 . A
O144 C150 1.268 . A
O145 C150 1.245 . A
O146 C159 1.278 . A
O147 H158 0.840 . S
O147 C159 1.287 . A
C148 O156 1.272 . A
C148 O157 1.203 . A
C149 O151 1.275 . A
C149 O152 1.272 . A
Zn160 O165 1.991 . S
Zn160 O166 1.968 1_556 S
Zn160 O172 1.928 . S
Zn160 O173 1.929 . S
Zn161 O171 2.165 . S
Zn161 O173 2.095 . S
Zn161 O175 1.986 . S
Zn161 O176 2.003 . S
Zn162 O164 2.152 . S
Zn162 O173 2.019 . S
Zn162 O174 1.962 . S
Zn162 O177 2.073 . S
C163 O174 1.279 . A
C163 O175 1.276 . A
O164 C170 1.268 . A
O165 C170 1.245 . A
O166 C179 1.278 . A
O167 H178 0.840 . S
O167 C179 1.287 . A
C168 O176 1.272 . A
C168 O177 1.203 . A
C169 O171 1.275 . A
C169 O172 1.272 . A
Zn180 O185 1.991 . S
Zn180 O186 1.968 . S
Zn180 O192 1.928 . S
Zn180 O193 1.929 . S
Zn181 O191 2.165 . S
Zn181 O193 2.095 1_556 S
Zn181 O195 1.986 . S
Zn181 O196 2.003 . S
Zn182 O184 2.152 1_556 S
Zn182 O193 2.019 1_556 S
Zn182 O194 1.962 . S
Zn182 O197 2.073 . S
C183 O194 1.279 . A
C183 O195 1.276 . A
O184 C190 1.268 . A
O185 C190 1.245 . A
O186 C199 1.278 . A
O187 H198 0.840 . S
O187 C199 1.287 . A
C188 O196 1.272 . A
C188 O197 1.203 . A
C189 O191 1.275 . A
C189 O192 1.272 1_556 A
Zn200 O205 1.991 . S
Zn200 O206 1.968 . S
Zn200 O212 1.928 . S
Zn200 O213 1.929 . S
Zn201 O211 2.165 . S
Zn201 O213 2.095 . S
Zn201 O215 1.986 1_554 S
Zn201 O216 2.003 . S
Zn202 O204 2.152 . S
Zn202 O213 2.019 . S
Zn202 O214 1.962 1_554 S
Zn202 O217 2.073 . S
C203 O214 1.279 . A
C203 O215 1.276 . A
O204 C210 1.268 . A
O205 C210 1.245 . A
O206 C219 1.278 . A
O207 H218 0.840 . S
O207 C219 1.287 . A
C208 O216 1.272 . A
C208 O217 1.203 . A
C209 O211 1.275 . A
C209 O212 1.272 . A
Zn220 O225 1.991 . S
Zn220 O226 1.968 . S
Zn220 O232 1.928 . S
Zn220 O233 1.929 . S
Zn221 O231 2.165 . S
Zn221 O233 2.095 . S
Zn221 O235 1.986 . S
Zn221 O236 2.003 . S
Zn222 O224 2.152 . S
Zn222 O233 2.019 . S
Zn222 O234 1.962 . S
Zn222 O237 2.073 . S
C223 O234 1.279 . A
C223 O235 1.276 . A
O224 C230 1.268 . A
O225 C230 1.245 . A
O226 C239 1.278 . A
O227 H238 0.840 . S
O227 C239 1.287 . A
C228 O236 1.272 . A
C228 O237 1.203 . A
C229 O231 1.275 . A
C229 O232 1.272 . A
C240 C241 1.392 . A
C240 C247 1.393 . A
C241 C242 1.395 . A
C241 H250 0.930 . S
C242 C246 1.390 . A
H243 N251 0.860 . S
H244 N251 0.860 . S
C245 C246 1.392 . A
C245 C247 1.392 . A
C245 N251 1.403 . S
C246 H248 0.930 . S
C247 H249 0.930 . S
C252 C253 1.392 . A
C252 C259 1.393 . A
C253 C254 1.395 . A
C253 H262 0.930 . S
C254 C258 1.390 . A
H255 N263 0.860 . S
H256 N263 0.860 . S
C257 C258 1.392 . A
C257 C259 1.392 . A
C257 N263 1.403 . S
C258 H260 0.930 . S
C259 H261 0.930 . S
C264 C265 1.392 . A
C264 C271 1.393 . A
C265 C266 1.395 . A
C265 H274 0.930 . S
C266 C270 1.390 . A
H267 N275 0.860 . S
H268 N275 0.860 . S
C269 C270 1.392 . A
C269 C271 1.392 . A
C269 N275 1.403 1_556 S
C270 H272 0.930 . S
C271 H273 0.930 . S
C276 C277 1.392 . A
C276 C283 1.393 . A
C277 C278 1.395 . A
C277 H286 0.930 . S
C278 C282 1.390 . A
H279 N287 0.860 . S
H280 N287 0.860 . S
C281 C282 1.392 . A
C281 C283 1.392 . A
C281 N287 1.403 . S
C282 H284 0.930 . S
C283 H285 0.930 . S
C288 C289 1.392 . A
C288 C295 1.393 . A
C289 C290 1.395 . A
C289 H298 0.930 . S
C290 C294 1.390 . A
H291 N299 0.860 . S
H292 N299 0.860 . S
C293 C294 1.392 . A
C293 C295 1.392 . A
C293 N299 1.403 . S
C294 H296 0.930 . S
C295 H297 0.930 . S
C300 C301 1.392 . A
C300 C307 1.393 1_556 A
C301 C302 1.395 . A
C301 H310 0.930 . S
C302 C306 1.390 1_556 A
H303 N311 0.860 . S
H304 N311 0.860 . S
C305 C306 1.392 . A
C305 C307 1.392 . A
C305 N311 1.403 . S
C306 H308 0.930 . S
C307 H309 0.930 . S
C312 C313 1.392 . A
C312 C319 1.393 . A
C313 C314 1.395 . A
C313 H322 0.930 . S
C314 C318 1.390 . A
H315 N323 0.860 . S
H316 N323 0.860 . S
C317 C318 1.392 . A
C317 C319 1.392 . A
C317 N323 1.403 . S
C318 H320 0.930 . S
C319 H321 0.930 . S
C324 C325 1.392 1_655 A
C324 C331 1.393 . A
C325 C326 1.395 . A
C325 H334 0.930 . S
C326 C330 1.390 1_456 A
H327 N335 0.860 . S
H328 N335 0.860 . S
C329 C330 1.393 . A
C329 C331 1.389 1_554 A
C329 N335 1.405 . S
C330 H332 0.930 . S
C331 H333 0.930 . S
C336 C337 1.392 1_655 A
C336 C343 1.393 . A
C337 C338 1.395 . A
C337 H346 0.930 . S
C338 C342 1.390 1_455 A
H339 N347 0.860 . S
H340 N347 0.860 . S
C341 C342 1.392 . A
C341 C343 1.392 . A
C341 N347 1.403 . S
C342 H344 0.930 . S
C343 H345 0.930 . S
C348 C349 1.392 . A
C348 C355 1.393 1_545 A
C349 C350 1.395 1_545 A
C349 H358 0.930 . S
C350 C354 1.390 . A
H351 N359 0.860 . S
H352 N359 0.860 . S
C353 C354 1.392 . A
C353 C355 1.392 . A
C353 N359 1.403 . S
C354 H356 0.930 . S
C355 H357 0.930 . S
C360 C361 1.392 1_545 A
C360 C367 1.393 . A
C361 C362 1.395 1_554 A
C361 H370 0.930 . S
C362 C366 1.390 . A
H363 N371 0.860 . S
H364 N371 0.860 . S
C365 C366 1.392 1_545 A
C365 C367 1.392 1_556 A
C365 N371 1.403 . S
C366 H368 0.930 . S
C367 H369 0.930 . S
C372 C373 1.392 . A
C372 C379 1.393 . A
C373 C374 1.395 . A
C373 H382 0.930 . S
C374 C378 1.390 . A
H375 N383 0.861 . S
H376 N383 0.859 1_556 S
C377 C378 1.392 . A
C377 C379 1.392 . A
C377 N383 1.403 . S
C378 H380 0.930 1_554 S
C379 H381 0.930 . S
C384 C385 1.392 . A
C384 C391 1.393 . A
C385 C386 1.395 . A
C385 H394 0.930 . S
C386 C390 1.390 . A
H387 N395 0.860 . S
H388 N395 0.860 . S
C389 C390 1.392 . A
C389 C391 1.392 . A
C389 N395 1.403 . S
C390 H392 0.930 . S
C391 H393 0.930 . S
C396 C397 1.392 . A
C396 C403 1.393 . A
C397 C398 1.395 . A
C397 H406 0.930 . S
C398 C402 1.390 . A
H399 N407 0.860 . S
H400 N407 0.860 . S
C401 C402 1.392 . A
C401 C403 1.392 . A
C401 N407 1.403 . S
C402 H404 0.930 . S
C403 H405 0.930 . S
C408 C409 1.392 . A
C408 C415 1.393 . A
C409 C410 1.395 . A
C409 H418 0.930 . S
C410 C414 1.390 . A
H411 N419 0.860 . S
H412 N419 0.860 . S
C413 C414 1.392 . A
C413 C415 1.392 . A
C413 N419 1.403 1_556 S
C414 H416 0.930 1_556 S
C415 H417 0.930 . S
C420 C421 1.392 . A
C420 C427 1.393 . A
C421 C422 1.395 . A
C421 H430 0.930 1_556 S
C422 C426 1.390 . A
H423 N431 0.860 . S
H424 N431 0.860 . S
C425 C426 1.392 . A
C425 C427 1.392 . A
C425 N431 1.403 . S
C426 H428 0.930 . S
C427 H429 0.930 . S
C432 C433 1.392 . A
C432 C439 1.393 . A
C433 C434 1.395 . A
C433 H442 0.930 . S
C434 C438 1.390 . A
H435 N443 0.860 . S
H436 N443 0.860 . S
C437 C438 1.392 . A
C437 C439 1.392 . A
C437 N443 1.403 . S
C438 H440 0.930 . S
C439 H441 0.930 . S
C444 C445 1.392 . A
C444 C451 1.393 . A
C445 C446 1.395 . A
C445 H454 0.930 . S
C446 C450 1.390 1_554 A
H447 N455 0.860 . S
H448 N455 0.860 . S
C449 C450 1.392 . A
C449 C451 1.392 1_556 A
C449 N455 1.403 . S
C450 H452 0.930 . S
C451 H453 0.930 . S
C456 C457 1.392 . A
C456 C463 1.393 . A
C457 C458 1.395 1_554 A
C457 H466 0.930 . S
C458 C462 1.390 . A
H459 N467 0.860 . S
H460 N467 0.860 1_556 S
C461 C462 1.392 1_554 A
C461 C463 1.392 . A
C461 N467 1.403 . S
C462 H464 0.930 . S
C463 H465 0.930 . S
C468 C469 1.392 . A
C468 C475 1.393 . A
C469 C470 1.395 . A
C469 H478 0.930 . S
C470 C474 1.390 . A
H471 N479 0.860 . S
H472 N479 0.860 . S
C473 C474 1.392 . A
C473 C475 1.392 . A
C473 N479 1.403 . S
C474 H476 0.930 . S
C475 H477 0.930 1_554 S
C480 C481 1.392 . A
C480 C487 1.393 . A
C481 C482 1.395 1_556 A
C481 H490 0.930 . S
C482 C486 1.390 . A
H483 N491 0.860 . S
H484 N491 0.860 . S
C485 C486 1.392 . A
C485 C487 1.392 1_554 A
C485 N491 1.403 . S
C486 H488 0.930 . S
C487 H489 0.930 . S
C492 C493 1.392 . A
C492 C499 1.393 . A
C493 C494 1.395 . A
C493 H502 0.930 . S
C494 C498 1.390 . A
H495 N503 0.860 1_556 S
H496 N503 0.860 . S
C497 C498 1.392 . A
C497 C499 1.392 . A
C497 N503 1.403 . S
C498 H500 0.930 . S
C499 H501 0.930 1_554 S
C504 C505 1.392 . A
C504 C511 1.393 . A
C505 C506 1.395 . A
C505 H514 0.930 . S
C506 C510 1.390 . A
H507 N515 0.860 . S
H508 N515 0.860 . S
C509 C510 1.392 . A
C509 C511 1.392 . A
C509 N515 1.403 . S
C510 H512 0.930 . S
C511 H513 0.930 . S
C516 C517 1.392 . A
C516 C523 1.393 . A
C517 C518 1.395 . A
C517 H526 0.930 . S
C518 C522 1.390 . A
H519 N527 0.860 . S
H520 N527 0.860 . S
C521 C522 1.392 . A
C521 C523 1.392 . A
C521 N527 1.403 . S
C522 H524 0.930 . S
C523 H525 0.930 1_556 S
C528 C529 1.392 . A
C528 C535 1.393 . A
C529 C530 1.395 . A
C529 H538 0.930 . S
C530 C534 1.390 . A
H531 N539 0.860 . S
H532 N539 0.860 . S
C533 C534 1.392 . A
C533 C535 1.392 . A
C533 N539 1.403 . S
C534 H536 0.930 . S
C535 H537 0.930 . S
C540 C541 1.392 . A
C540 C547 1.393 . A
C541 C542 1.395 . A
C541 H550 0.930 . S
C542 C546 1.390 . A
H543 N551 0.860 . S
H544 N551 0.860 . S
C545 C546 1.392 . A
C545 C547 1.392 . A
C545 N551 1.403 . S
C546 H548 0.930 . S
C547 H549 0.930 . S
C552 C553 1.392 . A
C552 C559 1.393 . A
C553 C554 1.395 . A
C553 H562 0.930 . S
C554 C558 1.390 . A
H555 N563 0.860 . S
H556 N563 0.860 . S
C557 C558 1.392 . A
C557 C559 1.392 . A
C557 N563 1.403 . S
C558 H560 0.930 . S
C559 H561 0.930 . S
C564 C565 1.392 . A
C564 C571 1.393 . A
C565 C566 1.395 . A
C565 H574 0.930 . S
C566 C570 1.390 . A
H567 N575 0.860 . S
H568 N575 0.860 . S
C569 C570 1.392 . A
C569 C571 1.392 . A
C569 N575 1.403 . S
C570 H572 0.930 . S
C571 H573 0.930 . S
C576 C577 1.392 . A
C576 C583 1.393 . A
C577 C578 1.395 . A
C577 H586 0.930 . S
C578 C582 1.390 . A
H579 N587 0.860 . S
H580 N587 0.860 . S
C581 C582 1.392 . A
C581 C583 1.392 . A
C581 N587 1.403 . S
C582 H584 0.930 . S
C583 H585 0.930 . S
C588 C589 1.392 . A
C588 C595 1.393 . A
C589 C590 1.395 . A
C589 H598 0.930 . S
C590 C594 1.390 . A
H591 N599 0.860 . S
H592 N599 0.860 . S
C593 C594 1.392 . A
C593 C595 1.392 . A
C593 N599 1.403 . S
C594 H596 0.930 . S
C595 H597 0.930 1_556 S
C240 C9 1.549 . S
C242 C109 1.525 . S
C252 C29 1.583 . S
C254 C49 1.585 . S
C264 C169 1.590 . S
C266 C69 1.561 . S
C276 C89 1.586 . S
C278 C229 1.583 . S
C288 C209 1.584 . S
C290 C129 1.585 . S
C300 C189 1.581 . S
C302 C149 1.545 . S
C312 C150 1.188 . S
C314 C10 1.438 . S
C324 C30 1.143 . S
C326 C130 1.423 . S
C336 C50 1.154 . S
C338 C210 1.446 . S
C348 C230 1.450 . S
C350 C70 1.159 . S
C360 C90 1.263 . S
C362 C170 1.396 . S
C372 C110 1.216 . S
C374 C190 1.425 . S
C384 C128 1.400 . S
C386 C8 1.341 . S
C396 C88 1.477 . S
C398 C28 1.405 . S
C408 C48 1.281 . S
C410 C188 1.505 . S
C420 C68 1.473 . S
C422 C208 1.287 1_556 S
C432 C108 1.439 . S
C434 C168 1.310 . S
C444 C228 1.284 . S
C446 C148 1.514 1_554 S
C456 C3 1.250 . S
C458 C19 1.131 . S
C468 C39 1.228 . S
C470 C23 1.061 . S
C480 C43 1.144 . S
C482 C59 1.217 . S
C492 C63 1.046 1_554 S
C494 C79 1.133 . S
C504 C99 1.147 . S
C506 C83 1.000 . S
C516 C119 1.140 1_556 S
C518 C103 1.256 . S
C528 C123 1.199 . S
C530 C139 1.207 . S
C540 C143 1.111 . S
C542 C159 1.124 . S
C552 C163 1.191 . S
C554 C179 1.209 . S
C564 C199 1.202 . S
C566 C183 1.227 . S
C576 C203 0.910 . S
C578 C219 1.184 . S
C588 C223 1.251 1_556 S
C590 C239 1.131 . S
