# Generated by pormake.
# Topology soj, (6)-cn, num edge types: 1
# Building blocks:
#     Node 0, Type 0, BuildingBlock: N555, # of connection points: 6
#     Node 1, Type 0, BuildingBlock: N555, # of connection points: 6
#     Node 2, Type 0, BuildingBlock: N555, # of connection points: 6
#     Node 3, Type 0, BuildingBlock: N555, # of connection points: 6
#     Node 4, Type 0, BuildingBlock: N555, # of connection points: 6
#     Node 5, Type 0, BuildingBlock: N555, # of connection points: 6
#     Node 6, Type 0, BuildingBlock: N555, # of connection points: 6
#     Node 7, Type 0, BuildingBlock: N555, # of connection points: 6
#     Edge 8, Type (0, 0), BuildingBlock: E156, # of connection points: 2
#     Edge 9, Type (0, 0), BuildingBlock: E156, # of connection points: 2
#     Edge 10, Type (0, 0), BuildingBlock: E156, # of connection points: 2
#     Edge 11, Type (0, 0), BuildingBlock: E156, # of connection points: 2
#     Edge 12, Type (0, 0), BuildingBlock: E156, # of connection points: 2
#     Edge 13, Type (0, 0), BuildingBlock: E156, # of connection points: 2
#     Edge 14, Type (0, 0), BuildingBlock: E156, # of connection points: 2
#     Edge 15, Type (0, 0), BuildingBlock: E156, # of connection points: 2
#     Edge 16, Type (0, 0), BuildingBlock: E156, # of connection points: 2
#     Edge 17, Type (0, 0), BuildingBlock: E156, # of connection points: 2
#     Edge 18, Type (0, 0), BuildingBlock: E156, # of connection points: 2
#     Edge 19, Type (0, 0), BuildingBlock: E156, # of connection points: 2
#     Edge 20, Type (0, 0), BuildingBlock: E156, # of connection points: 2
#     Edge 21, Type (0, 0), BuildingBlock: E156, # of connection points: 2
#     Edge 22, Type (0, 0), BuildingBlock: E156, # of connection points: 2
#     Edge 23, Type (0, 0), BuildingBlock: E156, # of connection points: 2
#     Edge 24, Type (0, 0), BuildingBlock: E156, # of connection points: 2
#     Edge 25, Type (0, 0), BuildingBlock: E156, # of connection points: 2
#     Edge 26, Type (0, 0), BuildingBlock: E156, # of connection points: 2
#     Edge 27, Type (0, 0), BuildingBlock: E156, # of connection points: 2
#     Edge 28, Type (0, 0), BuildingBlock: E156, # of connection points: 2
#     Edge 29, Type (0, 0), BuildingBlock: E156, # of connection points: 2
#     Edge 30, Type (0, 0), BuildingBlock: E156, # of connection points: 2
#     Edge 31, Type (0, 0), BuildingBlock: E156, # of connection points: 2
# Relax obj value: 0.404
# Max RMSD: 0.413
# Mean RMSD: 0.395
data_soj+N555+E156
_symmetry_space_group_name_H-M    P1
_symmetry_Int_Tables_number       1
_symmetry_cell_setting            triclinic
loop_
_symmetry_equiv_pos_as_xyz
'x, y, z'
_cell_length_a     25.906
_cell_length_b     39.666
_cell_length_c     22.334
_cell_angle_alpha  86.401
_cell_angle_beta   95.111
_cell_angle_gamma  87.711
loop_
_atom_site_label
_atom_site_type_symbol
_atom_site_fract_x
_atom_site_fract_y
_atom_site_fract_z
_atom_type_partial_charge
C0 C 0.54850 0.33410 0.86467 0.00000
Tb1 Tb 0.64402 0.23541 0.02930 0.00000
Tb2 Tb 0.59840 0.35678 0.97090 0.00000
C3 C 0.52997 0.40778 0.05294 0.00000
C4 C 0.53555 0.28340 0.01569 0.00000
O5 O 0.71311 0.23324 0.11046 0.00000
O6 O 0.65230 0.27339 0.11316 0.00000
C7 C 0.69391 0.25810 0.13553 0.00000
O8 O 0.68722 0.28106 0.99746 0.00000
O9 O 0.70877 0.20588 0.98684 0.00000
O10 O 0.68162 0.33586 0.96647 0.00000
O11 O 0.67470 0.17206 0.91860 0.00000
O12 O 0.52931 0.35895 0.88974 0.00000
O13 O 0.59012 0.31881 0.88703 0.00000
O14 O 0.55520 0.31114 0.00274 0.00000
O15 O 0.53364 0.38631 0.01336 0.00000
C16 C 0.71245 0.18442 0.94726 0.00000
O17 O 0.56079 0.25634 0.03373 0.00000
O18 O 0.56772 0.42014 0.08160 0.00000
C19 C 0.70687 0.30879 0.98450 0.00000
C20 C 0.66646 0.73254 0.61150 0.00000
Tb21 Tb 0.58383 0.63901 0.45969 0.00000
Tb22 Tb 0.61553 0.75864 0.50071 0.00000
C23 C 0.67976 0.81122 0.41243 0.00000
C24 C 0.68712 0.68559 0.46842 0.00000
O25 O 0.51600 0.63973 0.37731 0.00000
O26 O 0.57261 0.67940 0.36987 0.00000
C27 C 0.53290 0.66511 0.34889 0.00000
O28 O 0.53513 0.68439 0.48366 0.00000
O29 O 0.52153 0.60897 0.50521 0.00000
O30 O 0.53434 0.73844 0.50646 0.00000
O31 O 0.55836 0.57287 0.57934 0.00000
O32 O 0.68337 0.75792 0.58308 0.00000
O33 O 0.62675 0.71825 0.59053 0.00000
O34 O 0.66423 0.71326 0.47674 0.00000
O35 O 0.67784 0.78868 0.45519 0.00000
C36 C 0.51960 0.58643 0.54797 0.00000
O37 O 0.66502 0.65921 0.45393 0.00000
O38 O 0.64100 0.82478 0.38105 0.00000
C39 C 0.51224 0.71206 0.49197 0.00000
C40 C 0.06408 0.15456 0.12953 0.00000
Tb41 Tb 0.13505 0.25335 0.97428 0.00000
Tb42 Tb 0.10498 0.13225 0.02552 0.00000
C43 C 0.03180 0.08375 0.93648 0.00000
C44 C 0.03134 0.20743 0.97863 0.00000
O45 O 0.19585 0.25516 0.89768 0.00000
O46 O 0.13770 0.21632 0.88928 0.00000
C47 C 0.17595 0.23104 0.87027 0.00000
O48 O 0.18539 0.20645 0.00774 0.00000
O49 O 0.20215 0.28099 0.02255 0.00000
O50 O 0.18737 0.15141 0.03657 0.00000
O51 O 0.17230 0.31460 0.08989 0.00000
O52 O 0.04418 0.13044 0.10212 0.00000
O53 O 0.10233 0.16928 0.11052 0.00000
O54 O 0.05464 0.17916 0.99206 0.00000
O55 O 0.03788 0.10462 0.97725 0.00000
C56 C 0.20824 0.30185 0.06332 0.00000
O57 O 0.05266 0.23420 0.96323 0.00000
O58 O 0.06773 0.07100 0.90991 0.00000
C59 C 0.20869 0.17817 0.02118 0.00000
C60 C 0.84290 0.25676 0.43587 0.00000
Tb61 Tb 0.92875 0.12663 0.43227 0.00000
Tb62 Tb 0.89462 0.22839 0.54467 0.00000
C63 C 0.83059 0.22767 0.66955 0.00000
C64 C 0.82468 0.16271 0.48175 0.00000
O65 O 0.99745 0.09250 0.49091 0.00000
O66 O 0.94031 0.11705 0.54336 0.00000
C67 C 0.98047 0.09826 0.54107 0.00000
O68 O 0.97638 0.16912 0.46856 0.00000
O69 O 0.99098 0.12508 0.36422 0.00000
O70 O 0.97601 0.21698 0.51623 0.00000
O71 O 0.95393 0.13090 0.26944 0.00000
O72 O 0.82591 0.26252 0.48602 0.00000
O73 O 0.88306 0.23797 0.43357 0.00000
O74 O 0.84699 0.18590 0.50838 0.00000
O75 O 0.83239 0.22994 0.61271 0.00000
C76 C 0.99279 0.12735 0.30738 0.00000
O77 O 0.84736 0.13804 0.46071 0.00000
O78 O 0.86944 0.22412 0.70749 0.00000
C79 C 0.99869 0.19231 0.49519 0.00000
C80 C 0.46710 0.33489 0.65111 0.00000
Tb81 Tb 0.38447 0.24136 0.49929 0.00000
Tb82 Tb 0.41617 0.36099 0.54031 0.00000
C83 C 0.48040 0.41357 0.45203 0.00000
C84 C 0.48776 0.28794 0.50803 0.00000
O85 O 0.31664 0.24208 0.41692 0.00000
O86 O 0.37325 0.28175 0.40948 0.00000
C87 C 0.33354 0.26746 0.38850 0.00000
O88 O 0.33577 0.28674 0.52326 0.00000
O89 O 0.32217 0.21131 0.54481 0.00000
O90 O 0.33498 0.34079 0.54607 0.00000
O91 O 0.35900 0.17522 0.61895 0.00000
O92 O 0.48401 0.36027 0.62269 0.00000
O93 O 0.42739 0.32060 0.63013 0.00000
O94 O 0.46487 0.31561 0.51634 0.00000
O95 O 0.47847 0.39103 0.49480 0.00000
C96 C 0.32024 0.18878 0.58757 0.00000
O97 O 0.46566 0.26156 0.49354 0.00000
O98 O 0.44164 0.42713 0.42066 0.00000
C99 C 0.31288 0.31441 0.53158 0.00000
C100 C 0.82404 0.76896 0.12973 0.00000
Tb101 Tb 0.89502 0.86775 0.97448 0.00000
Tb102 Tb 0.86495 0.74665 0.02572 0.00000
C103 C 0.79176 0.69815 0.93668 0.00000
C104 C 0.79131 0.82183 0.97883 0.00000
O105 O 0.95582 0.86956 0.89788 0.00000
O106 O 0.89767 0.83072 0.88948 0.00000
C107 C 0.93592 0.84544 0.87047 0.00000
O108 O 0.94536 0.82084 0.00794 0.00000
O109 O 0.96211 0.89538 0.02275 0.00000
O110 O 0.94733 0.76580 0.03677 0.00000
O111 O 0.93227 0.92900 0.09009 0.00000
O112 O 0.80414 0.74484 0.10232 0.00000
O113 O 0.86230 0.78368 0.11072 0.00000
O114 O 0.81461 0.79355 0.99226 0.00000
O115 O 0.79785 0.71901 0.97745 0.00000
C116 C 0.96821 0.91625 0.06352 0.00000
O117 O 0.81263 0.84859 0.96343 0.00000
O118 O 0.82770 0.68540 0.91011 0.00000
C119 C 0.96866 0.79257 0.02138 0.00000
C120 C 0.01953 0.90174 0.45893 0.00000
Tb121 Tb 0.10538 0.77162 0.45533 0.00000
Tb122 Tb 0.07125 0.87337 0.56774 0.00000
C123 C 0.00721 0.87265 0.69262 0.00000
C124 C 0.00131 0.80769 0.50481 0.00000
O125 O 0.17408 0.73748 0.51397 0.00000
O126 O 0.11694 0.76203 0.56642 0.00000
C127 C 0.15710 0.74324 0.56413 0.00000
O128 O 0.15301 0.81410 0.49163 0.00000
O129 O 0.16761 0.77006 0.38728 0.00000
O130 O 0.15264 0.86196 0.53929 0.00000
O131 O 0.13056 0.77588 0.29251 0.00000
O132 O 0.00254 0.90750 0.50909 0.00000
O133 O 0.05969 0.88295 0.45664 0.00000
O134 O 0.02362 0.83088 0.53144 0.00000
O135 O 0.00902 0.87492 0.63578 0.00000
C136 C 0.16942 0.77233 0.33044 0.00000
O137 O 0.02399 0.78302 0.48377 0.00000
O138 O 0.04607 0.86910 0.73055 0.00000
C139 C 0.17532 0.83729 0.51825 0.00000
C140 C 0.30609 0.74190 0.86447 0.00000
Tb141 Tb 0.40160 0.64322 0.02910 0.00000
Tb142 Tb 0.35598 0.76458 0.97070 0.00000
C143 C 0.28755 0.81558 0.05274 0.00000
C144 C 0.29313 0.69121 0.01549 0.00000
O145 O 0.47069 0.64104 0.11026 0.00000
O146 O 0.40989 0.68119 0.11296 0.00000
C147 C 0.45150 0.66590 0.13533 0.00000
O148 O 0.44480 0.68886 0.99726 0.00000
O149 O 0.46636 0.61369 0.98664 0.00000
O150 O 0.43921 0.74366 0.96627 0.00000
O151 O 0.43229 0.57986 0.91840 0.00000
O152 O 0.28689 0.76676 0.88954 0.00000
O153 O 0.34770 0.72661 0.88683 0.00000
O154 O 0.31278 0.71894 0.00254 0.00000
O155 O 0.29122 0.79411 0.01316 0.00000
C156 C 0.47004 0.59222 0.94706 0.00000
O157 O 0.31837 0.66414 0.03353 0.00000
O158 O 0.32530 0.82794 0.08140 0.00000
C159 C 0.46445 0.71660 0.98430 0.00000
C160 C 0.47089 0.35374 0.66739 0.00000
H161 H 0.47692 0.37589 0.64902 0.00000
H162 H 0.43517 0.35397 0.67723 0.00000
C163 C 0.48905 0.31745 0.76104 0.00000
C164 C 0.52637 0.31223 0.81986 0.00000
C165 C 0.50331 0.37937 0.75796 0.00000
H166 H 0.48975 0.34849 0.86657 0.00000
H167 H 0.45362 0.32104 0.77078 0.00000
H168 H 0.49087 0.29754 0.73809 0.00000
C169 C 0.54180 0.37431 0.81603 0.00000
H170 H 0.51280 0.39855 0.73283 0.00000
N171 N 0.50552 0.34803 0.72435 0.00000
H172 H 0.46836 0.38374 0.76876 0.00000
H173 H 0.56139 0.30748 0.80977 0.00000
H174 H 0.51602 0.29305 0.84434 0.00000
H175 H 0.54151 0.39455 0.83806 0.00000
H176 H 0.57683 0.36990 0.80515 0.00000
C177 C 0.52519 0.34383 0.85590 0.00000
C178 C 0.52856 0.64612 0.33280 0.00000
H179 H 0.56178 0.63360 0.33778 0.00000
H180 H 0.50239 0.63072 0.34407 0.00000
C181 C 0.46074 0.67024 0.25609 0.00000
C182 C 0.45034 0.68206 0.18808 0.00000
C183 C 0.52893 0.62854 0.23104 0.00000
H184 H 0.43977 0.63423 0.15747 0.00000
H185 H 0.43793 0.65237 0.26621 0.00000
H186 H 0.45415 0.68898 0.28067 0.00000
C187 C 0.51975 0.64078 0.16297 0.00000
H188 H 0.56471 0.62045 0.24073 0.00000
N189 N 0.51696 0.65749 0.26798 0.00000
H190 H 0.50666 0.61013 0.23977 0.00000
H191 H 0.47196 0.70069 0.17885 0.00000
H192 H 0.41436 0.68988 0.17941 0.00000
H193 H 0.52802 0.62250 0.13822 0.00000
H194 H 0.54208 0.65926 0.15429 0.00000
C195 C 0.46202 0.65303 0.14846 0.00000
C196 C 0.01926 0.14021 0.32369 0.00000
H197 H 0.00443 0.16037 0.33924 0.00000
H198 H 0.05535 0.13771 0.33971 0.00000
C199 C 0.05027 0.11798 0.23220 0.00000
C200 C 0.04666 0.12409 0.16233 0.00000
C201 C 0.03478 0.17989 0.24116 0.00000
H202 H 0.10077 0.16129 0.16057 0.00000
H203 H 0.08599 0.11879 0.24897 0.00000
H204 H 0.03789 0.09587 0.24310 0.00000
C205 C 0.02976 0.18620 0.17114 0.00000
H206 H 0.01365 0.19669 0.25876 0.00000
N207 N 0.01709 0.14532 0.25685 0.00000
H208 H 0.07056 0.18165 0.25703 0.00000
H209 H 0.01117 0.12205 0.14579 0.00000
H210 H 0.06821 0.10712 0.14578 0.00000
H211 H 0.04034 0.20869 0.16001 0.00000
H212 H 0.99386 0.18439 0.15527 0.00000
C213 C 0.06463 0.15932 0.14421 0.00000
C214 C 0.97157 0.88768 0.68417 0.00000
H215 H 0.97173 0.91219 0.68118 0.00000
H216 H 0.93839 0.88132 0.66565 0.00000
C217 C 0.96397 0.83867 0.75560 0.00000
C218 C 0.96934 0.82721 0.82396 0.00000
C219 C 0.93984 0.89735 0.78059 0.00000
H220 H 0.89677 0.84620 0.84155 0.00000
H221 H 0.92906 0.83541 0.73814 0.00000
H222 H 0.98800 0.82534 0.73473 0.00000
C223 C 0.94641 0.88634 0.84929 0.00000
H224 H 0.94770 0.92095 0.77435 0.00000
N225 N 0.97598 0.87579 0.74910 0.00000
H226 H 0.90436 0.89467 0.76446 0.00000
H227 H 0.00477 0.82942 0.84055 0.00000
H228 H 0.96111 0.80364 0.82910 0.00000
H229 H 0.92384 0.90035 0.87068 0.00000
H230 H 0.98202 0.88902 0.86539 0.00000
C231 C 0.93275 0.84867 0.85804 0.00000
C232 C 0.43472 0.26607 0.04062 0.00000
H233 H 0.45026 0.26566 0.08184 0.00000
H234 H 0.41475 0.28730 0.03215 0.00000
C235 C 0.36495 0.24228 0.97636 0.00000
C236 C 0.32811 0.21223 0.97289 0.00000
C237 C 0.36695 0.23747 0.08850 0.00000
H238 H 0.27377 0.23217 0.02554 0.00000
H239 H 0.34487 0.26355 0.97385 0.00000
H240 H 0.38654 0.24245 0.94302 0.00000
C241 C 0.33111 0.20678 0.08564 0.00000
H242 H 0.38957 0.23546 0.12568 0.00000
N243 N 0.39861 0.23787 0.03575 0.00000
H244 H 0.34608 0.25837 0.08744 0.00000
H245 H 0.34844 0.19119 0.97327 0.00000
H246 H 0.30576 0.21485 0.93555 0.00000
H247 H 0.31077 0.20577 0.11996 0.00000
H248 H 0.35209 0.18584 0.08665 0.00000
C249 C 0.29473 0.21093 0.02622 0.00000
C250 C 0.28836 0.81629 0.49927 0.00000
H251 H 0.28377 0.83170 0.46351 0.00000
H252 H 0.30579 0.82820 0.53130 0.00000
C253 C 0.34023 0.76639 0.54517 0.00000
C254 C 0.37549 0.73591 0.53015 0.00000
C255 C 0.36728 0.80004 0.45600 0.00000
H256 H 0.44247 0.76261 0.52501 0.00000
H257 H 0.35930 0.78030 0.57280 0.00000
H258 H 0.31041 0.75826 0.56412 0.00000
C259 C 0.40171 0.76936 0.43963 0.00000
H260 H 0.35469 0.81372 0.41973 0.00000
N261 N 0.32255 0.78695 0.48682 0.00000
H262 H 0.38750 0.81402 0.48242 0.00000
H263 H 0.35562 0.72151 0.50425 0.00000
H264 H 0.38778 0.72271 0.56703 0.00000
H265 H 0.43056 0.77730 0.41880 0.00000
H266 H 0.38137 0.75534 0.41317 0.00000
C267 C 0.42206 0.74824 0.49854 0.00000
C268 C 0.93969 0.23387 0.95148 0.00000
H269 H 0.95995 0.24710 0.92490 0.00000
H270 H 0.92308 0.21686 0.92811 0.00000
C271 C 0.85917 0.23567 0.00223 0.00000
C272 C 0.81723 0.26030 0.02354 0.00000
C273 C 0.87432 0.27810 0.91904 0.00000
H274 H 0.77456 0.26864 0.94034 0.00000
H275 H 0.84320 0.22071 0.97406 0.00000
H276 H 0.87606 0.22198 0.03649 0.00000
C277 C 0.83332 0.30333 0.94092 0.00000
H278 H 0.90068 0.29048 0.90000 0.00000
N279 N 0.89864 0.25657 0.97219 0.00000
H280 H 0.85770 0.26399 0.88982 0.00000
H281 H 0.83322 0.27433 0.05325 0.00000
H282 H 0.79123 0.24739 0.04215 0.00000
H283 H 0.81761 0.31787 0.90724 0.00000
H284 H 0.85003 0.31744 0.97026 0.00000
C285 C 0.79114 0.28286 0.97026 0.00000
C286 C 0.10815 0.20744 0.49981 0.00000
H287 H 0.11905 0.18579 0.52072 0.00000
H288 H 0.11191 0.20547 0.45734 0.00000
C289 C 0.13541 0.26566 0.48158 0.00000
C290 C 0.17279 0.29222 0.50691 0.00000
C291 C 0.19806 0.21926 0.52534 0.00000
H292 H 0.23817 0.27361 0.47014 0.00000
H293 H 0.14257 0.26113 0.44091 0.00000
H294 H 0.09974 0.27426 0.48054 0.00000
C295 C 0.23520 0.24563 0.55225 0.00000
H296 H 0.20167 0.19832 0.55051 0.00000
N297 N 0.14354 0.23347 0.52237 0.00000
H298 H 0.20677 0.21451 0.48531 0.00000
H299 H 0.16418 0.29748 0.54669 0.00000
H300 H 0.16868 0.31285 0.48095 0.00000
H301 H 0.27073 0.23671 0.55538 0.00000
H302 H 0.22640 0.25040 0.59238 0.00000
C303 C 0.22930 0.27868 0.51057 0.00000
C304 C 0.72124 0.19000 0.51694 0.00000
H305 H 0.71544 0.16778 0.53515 0.00000
H306 H 0.74065 0.20223 0.54706 0.00000
C307 C 0.67766 0.24532 0.48500 0.00000
C308 C 0.62332 0.26331 0.46785 0.00000
C309 C 0.63764 0.20318 0.55230 0.00000
H310 H 0.60531 0.26869 0.55561 0.00000
H311 H 0.69519 0.25541 0.51915 0.00000
H312 H 0.69878 0.24776 0.45138 0.00000
C313 C 0.58280 0.22049 0.53425 0.00000
H314 H 0.63454 0.17922 0.56209 0.00000
N315 N 0.67000 0.20818 0.50062 0.00000
H316 H 0.65388 0.21309 0.58740 0.00000
H317 H 0.60685 0.25390 0.43242 0.00000
H318 H 0.62735 0.28721 0.45850 0.00000
H319 H 0.56093 0.21712 0.56686 0.00000
H320 H 0.56657 0.21055 0.49900 0.00000
C321 C 0.58881 0.25889 0.51980 0.00000
C322 C 0.05055 0.76317 0.99402 0.00000
H323 H 0.02352 0.74789 0.98284 0.00000
H324 H 0.05654 0.77697 0.95812 0.00000
C325 C 0.14472 0.76551 0.01946 0.00000
C326 C 0.19445 0.74324 0.04169 0.00000
C327 C 0.10610 0.71598 0.97169 0.00000
H328 H 0.20727 0.72586 0.95824 0.00000
H329 H 0.14865 0.77683 0.98051 0.00000
H330 H 0.13902 0.78259 0.04771 0.00000
C331 C 0.15521 0.69320 0.99506 0.00000
H332 H 0.07578 0.70240 0.96864 0.00000
N333 N 0.09904 0.74272 0.01483 0.00000
H334 H 0.11039 0.72635 0.93209 0.00000
H335 H 0.19093 0.73298 0.08152 0.00000
H336 H 0.22423 0.75729 0.04415 0.00000
H337 H 0.16006 0.67537 0.96816 0.00000
H338 H 0.15087 0.68283 0.03480 0.00000
C339 C 0.20326 0.71545 0.99854 0.00000
C340 C 0.90755 0.78092 0.46614 0.00000
H341 H 0.90169 0.79883 0.43432 0.00000
H342 H 0.92992 0.76351 0.45198 0.00000
C343 C 0.86578 0.73346 0.51584 0.00000
C344 C 0.81195 0.71910 0.52617 0.00000
C345 C 0.82851 0.76103 0.41706 0.00000
H346 H 0.80131 0.69711 0.44427 0.00000
H347 H 0.88646 0.71734 0.49615 0.00000
H348 H 0.88424 0.73763 0.55420 0.00000
C349 C 0.77407 0.74749 0.42765 0.00000
H350 H 0.82456 0.78224 0.39265 0.00000
N351 N 0.85686 0.76624 0.47675 0.00000
H352 H 0.84797 0.74489 0.39601 0.00000
H353 H 0.79226 0.73483 0.54774 0.00000
H354 H 0.81686 0.69788 0.55041 0.00000
H355 H 0.75473 0.74441 0.38942 0.00000
H356 H 0.75461 0.76369 0.44881 0.00000
C357 C 0.78154 0.71328 0.46594 0.00000
C358 C 0.56375 0.73542 0.95777 0.00000
H359 H 0.57049 0.71419 0.93992 0.00000
H360 H 0.54593 0.75089 0.92660 0.00000
C361 C 0.60594 0.78598 0.99312 0.00000
C362 C 0.65962 0.79969 0.01423 0.00000
C363 C 0.64961 0.74644 0.92887 0.00000
H364 H 0.68244 0.81036 0.92853 0.00000
H365 H 0.59022 0.79950 0.95806 0.00000
H366 H 0.58293 0.78719 0.02496 0.00000
C367 C 0.70373 0.75938 0.95090 0.00000
H368 H 0.65317 0.72302 0.91916 0.00000
N369 N 0.61435 0.74955 0.97784 0.00000
H370 H 0.63524 0.75978 0.89296 0.00000
H371 H 0.67421 0.78682 0.05048 0.00000
H372 H 0.65514 0.82313 0.02343 0.00000
H373 H 0.72743 0.75713 0.92011 0.00000
H374 H 0.71809 0.74601 0.98695 0.00000
C375 C 0.69704 0.79706 0.96515 0.00000
C376 C 0.47071 0.54900 0.95635 0.00000
H377 H 0.43885 0.55953 0.96760 0.00000
H378 H 0.46376 0.54163 0.91595 0.00000
C379 C 0.52732 0.49734 0.97402 0.00000
C380 C 0.54129 0.46610 0.01922 0.00000
C381 C 0.43724 0.49943 0.00543 0.00000
H382 H 0.47981 0.43769 0.98889 0.00000
H383 H 0.51540 0.49002 0.93476 0.00000
H384 H 0.55773 0.51049 0.96982 0.00000
C385 C 0.45118 0.46868 0.05197 0.00000
H386 H 0.41052 0.51397 0.01953 0.00000
N387 N 0.48495 0.51868 0.99823 0.00000
H388 H 0.42421 0.49154 0.96699 0.00000
H389 H 0.55488 0.47360 0.05769 0.00000
H390 H 0.56785 0.45189 0.00410 0.00000
H391 H 0.42057 0.45613 0.05797 0.00000
H392 H 0.46429 0.47662 0.09049 0.00000
C393 C 0.49335 0.44554 0.02783 0.00000
C394 C 0.48922 0.54086 0.56014 0.00000
H395 H 0.50124 0.53755 0.60259 0.00000
H396 H 0.45161 0.54165 0.55690 0.00000
C397 C 0.48006 0.51159 0.46604 0.00000
C398 C 0.50065 0.48033 0.43491 0.00000
C399 C 0.49826 0.47976 0.56618 0.00000
H400 H 0.45432 0.44562 0.47514 0.00000
H401 H 0.44293 0.51070 0.46820 0.00000
H402 H 0.48685 0.53223 0.44300 0.00000
C403 C 0.52022 0.44859 0.53561 0.00000
H404 H 0.51533 0.48063 0.60648 0.00000
N405 N 0.50766 0.51115 0.52895 0.00000
H406 H 0.46138 0.47790 0.56920 0.00000
H407 H 0.53740 0.48203 0.43103 0.00000
H408 H 0.48293 0.47990 0.39489 0.00000
H409 H 0.51519 0.42798 0.55952 0.00000
H410 H 0.55721 0.45050 0.53256 0.00000
C411 C 0.49164 0.44748 0.47162 0.00000
C412 C 0.00265 0.03999 0.92794 0.00000
H413 H 0.97875 0.04031 0.89187 0.00000
H414 H 0.03699 0.03404 0.91672 0.00000
C415 C 0.03058 0.00666 0.02282 0.00000
C416 C 0.01330 0.97873 0.06803 0.00000
C417 C 0.97683 0.98216 0.93938 0.00000
H418 H 0.03327 0.93805 0.01926 0.00000
H419 H 0.06247 0.99990 0.00691 0.00000
H420 H 0.03676 0.02723 0.04313 0.00000
C421 C 0.95822 0.95458 0.98455 0.00000
H422 H 0.95022 0.98736 0.90637 0.00000
N423 N 0.98770 0.01320 0.97204 0.00000
H424 H 0.00800 0.97395 0.92294 0.00000
H425 H 0.98247 0.98673 0.08530 0.00000
H426 H 0.04054 0.97385 0.10043 0.00000
H427 H 0.95023 0.93439 0.96404 0.00000
H428 H 0.92698 0.96286 0.00104 0.00000
C429 C 0.00187 0.94632 0.03634 0.00000
C430 C 0.00010 0.96007 0.43637 0.00000
H431 H 0.02315 0.96105 0.40425 0.00000
H432 H 0.96505 0.96436 0.41807 0.00000
C433 C 0.97095 0.99175 0.51938 0.00000
C434 C 0.98600 0.02042 0.56133 0.00000
C435 C 0.01933 0.01920 0.43918 0.00000
H436 H 0.95993 0.06030 0.50001 0.00000
H437 H 0.93789 0.99755 0.49649 0.00000
H438 H 0.96781 0.97079 0.54333 0.00000
C439 C 0.03575 0.04758 0.48139 0.00000
H440 H 0.04559 0.01541 0.41167 0.00000
N441 N 0.01310 0.98748 0.47707 0.00000
H442 H 0.98687 0.02592 0.41568 0.00000
H443 H 0.01812 0.01388 0.58556 0.00000
H444 H 0.95914 0.02384 0.58820 0.00000
H445 H 0.04073 0.06825 0.45764 0.00000
H446 H 0.06828 0.04080 0.50497 0.00000
C447 C 0.99265 0.05352 0.52421 0.00000
C448 C 0.79575 0.25642 0.38852 0.00000
H449 H 0.80697 0.23406 0.40614 0.00000
H450 H 0.76322 0.26258 0.40424 0.00000
C451 C 0.75762 0.28691 0.29455 0.00000
C452 C 0.74882 0.28421 0.22513 0.00000
C453 C 0.75642 0.22408 0.30967 0.00000
H454 H 0.68429 0.25487 0.22688 0.00000
H455 H 0.72461 0.28976 0.31134 0.00000
H456 H 0.77790 0.30633 0.30332 0.00000
C457 C 0.74894 0.22102 0.24011 0.00000
H458 H 0.77514 0.20407 0.32903 0.00000
N459 N 0.78629 0.25473 0.32203 0.00000
H460 H 0.72293 0.22605 0.32565 0.00000
H461 H 0.78200 0.28258 0.20844 0.00000
H462 H 0.72989 0.30438 0.20681 0.00000
H463 H 0.73029 0.20101 0.23115 0.00000
H464 H 0.78255 0.21908 0.22413 0.00000
C465 C 0.71813 0.25308 0.21039 0.00000
C466 C 0.71107 0.74301 0.69675 0.00000
H467 H 0.73878 0.75470 0.67901 0.00000
H468 H 0.68689 0.76003 0.70883 0.00000
C469 C 0.69050 0.71003 0.78798 0.00000
C470 C 0.71564 0.68844 0.84456 0.00000
C471 C 0.76997 0.74354 0.78703 0.00000
H472 H 0.73428 0.72902 0.89549 0.00000
H473 H 0.67029 0.72910 0.80011 0.00000
H474 H 0.66756 0.69641 0.76384 0.00000
C475 C 0.79606 0.72151 0.84279 0.00000
H476 H 0.79625 0.75171 0.76213 0.00000
N477 N 0.73361 0.72239 0.75160 0.00000
H478 H 0.75107 0.76289 0.80023 0.00000
H479 H 0.73422 0.66881 0.83205 0.00000
H480 H 0.68870 0.68069 0.86886 0.00000
H481 H 0.82038 0.73463 0.86593 0.00000
H482 H 0.81496 0.70210 0.82950 0.00000
C483 C 0.75322 0.70926 0.88238 0.00000
C484 C 0.19212 0.21476 0.78940 0.00000
H485 H 0.18000 0.19479 0.81022 0.00000
H486 H 0.16278 0.22549 0.76434 0.00000
C487 C 0.24316 0.23323 0.70645 0.00000
C488 C 0.28524 0.22091 0.66610 0.00000
C489 C 0.21271 0.17444 0.71716 0.00000
H490 H 0.23487 0.19738 0.60611 0.00000
H491 H 0.21177 0.24093 0.68169 0.00000
H492 H 0.25561 0.25194 0.72881 0.00000
C493 C 0.25558 0.16165 0.67805 0.00000
H494 H 0.20477 0.15648 0.74593 0.00000
N495 N 0.23204 0.20390 0.74965 0.00000
H496 H 0.18131 0.18120 0.69162 0.00000
H497 H 0.31704 0.21440 0.69098 0.00000
H498 H 0.29237 0.23920 0.63758 0.00000
H499 H 0.24411 0.14222 0.65725 0.00000
H500 H 0.28707 0.15490 0.70370 0.00000
C501 C 0.26689 0.19069 0.63173 0.00000
C502 C 0.81964 0.21988 0.73852 0.00000
H503 H 0.85392 0.20946 0.73654 0.00000
H504 H 0.82411 0.24268 0.75082 0.00000
C505 C 0.74511 0.22034 0.79963 0.00000
C506 C 0.71872 0.19921 0.84854 0.00000
C507 C 0.83116 0.19373 0.83993 0.00000
H508 H 0.76667 0.21308 0.92157 0.00000
H509 H 0.75431 0.24201 0.81422 0.00000
H510 H 0.72139 0.22439 0.76352 0.00000
C511 C 0.80496 0.17180 0.88815 0.00000
H512 H 0.86206 0.18182 0.82914 0.00000
N513 N 0.79341 0.20056 0.78553 0.00000
H514 H 0.84118 0.21489 0.85604 0.00000
H515 H 0.70801 0.17813 0.83282 0.00000
H516 H 0.68811 0.21166 0.85877 0.00000
H517 H 0.82907 0.16667 0.92349 0.00000
H518 H 0.79489 0.15061 0.87192 0.00000
C519 C 0.75614 0.19170 0.90533 0.00000
C520 C 0.29082 0.28684 0.31319 0.00000
H521 H 0.26437 0.29501 0.33756 0.00000
H522 H 0.31714 0.30354 0.31235 0.00000
C523 C 0.30881 0.27913 0.20841 0.00000
C524 C 0.28213 0.27632 0.14370 0.00000
C525 C 0.23378 0.31562 0.23268 0.00000
H526 H 0.26932 0.32796 0.12350 0.00000
H527 H 0.33143 0.29801 0.20892 0.00000
H528 H 0.32959 0.25863 0.22118 0.00000
C529 C 0.20608 0.31227 0.16847 0.00000
H530 H 0.20820 0.31861 0.26131 0.00000
N531 N 0.26681 0.28426 0.25062 0.00000
H532 H 0.25513 0.33513 0.23244 0.00000
H533 H 0.26106 0.25671 0.14313 0.00000
H534 H 0.30840 0.27350 0.11588 0.00000
H535 H 0.18385 0.33216 0.15633 0.00000
H536 H 0.18471 0.29267 0.16876 0.00000
C537 C 0.24788 0.30809 0.12340 0.00000
C538 C 0.79154 0.75841 0.21912 0.00000
H539 H 0.77812 0.73643 0.21161 0.00000
H540 H 0.82513 0.75466 0.24196 0.00000
C541 C 0.78144 0.80718 0.28072 0.00000
C542 C 0.74291 0.82532 0.31923 0.00000
C543 C 0.74257 0.75212 0.30616 0.00000
H544 H 0.75967 0.79366 0.39674 0.00000
H545 H 0.81339 0.80038 0.30520 0.00000
H546 H 0.78967 0.82243 0.24758 0.00000
C547 C 0.70290 0.77016 0.34360 0.00000
H548 H 0.72755 0.73238 0.28935 0.00000
N549 N 0.75595 0.77638 0.25661 0.00000
H550 H 0.77364 0.74481 0.33186 0.00000
H551 H 0.71187 0.83308 0.29395 0.00000
H552 H 0.75881 0.84485 0.33574 0.00000
H553 H 0.69313 0.75470 0.37547 0.00000
H554 H 0.67178 0.77751 0.31775 0.00000
C555 C 0.72824 0.80131 0.37081 0.00000
C556 C 0.21085 0.79665 0.28463 0.00000
H557 H 0.19326 0.81612 0.29928 0.00000
H558 H 0.24638 0.79554 0.30269 0.00000
C559 C 0.24839 0.77614 0.19544 0.00000
C560 C 0.24746 0.78246 0.12579 0.00000
C561 C 0.22624 0.83739 0.20365 0.00000
H562 H 0.29783 0.82189 0.12740 0.00000
H563 H 0.28318 0.77832 0.21424 0.00000
H564 H 0.23774 0.75346 0.20545 0.00000
C565 C 0.22391 0.84385 0.13377 0.00000
H566 H 0.20262 0.85324 0.21996 0.00000
N567 N 0.21132 0.80200 0.21807 0.00000
H568 H 0.26105 0.84053 0.22157 0.00000
H569 H 0.21301 0.77905 0.10723 0.00000
H570 H 0.27149 0.76644 0.11056 0.00000
H571 H 0.23273 0.86683 0.12342 0.00000
H572 H 0.18899 0.84066 0.11585 0.00000
C573 C 0.26271 0.81853 0.10898 0.00000
C574 C 0.29009 0.73384 0.78482 0.00000
H575 H 0.32615 0.73739 0.77873 0.00000
H576 H 0.28737 0.71014 0.79707 0.00000
C577 C 0.20401 0.72890 0.73060 0.00000
C578 C 0.17193 0.73755 0.66879 0.00000
C579 C 0.28500 0.72530 0.67817 0.00000
H580 H 0.20068 0.69669 0.62615 0.00000
H581 H 0.20566 0.70470 0.74023 0.00000
H582 H 0.18764 0.73981 0.76217 0.00000
C583 C 0.25342 0.73479 0.61616 0.00000
H584 H 0.31991 0.73320 0.67756 0.00000
N585 N 0.25822 0.74146 0.72630 0.00000
H586 H 0.28723 0.70095 0.68613 0.00000
H587 H 0.16893 0.76183 0.66054 0.00000
H588 H 0.13733 0.72930 0.67038 0.00000
H589 H 0.27055 0.72496 0.58419 0.00000
H590 H 0.25117 0.75921 0.60825 0.00000
C591 C 0.19802 0.72135 0.61803 0.00000
loop_
_geom_bond_atom_site_label_1
_geom_bond_atom_site_label_2
_geom_bond_distance
_geom_bond_site_symmetry_2
_ccdc_geom_bond_type
C0 O12 1.270 . A
C0 O13 1.262 . A
Tb1 O5 2.426 . S
Tb1 O6 2.476 . S
Tb1 O8 2.276 1_554 S
Tb1 O9 2.313 1_554 S
Tb1 O17 2.292 . S
Tb2 O10 2.292 . S
Tb2 O12 2.426 . S
Tb2 O13 2.476 . S
Tb2 O14 2.276 1_556 S
Tb2 O15 2.313 1_556 S
C3 O15 1.272 . S
C3 O18 1.254 . D
C4 O14 1.259 . A
C4 O17 1.259 . A
O5 C7 1.270 . A
O6 C7 1.262 . A
O8 C19 1.259 . A
O9 C16 1.272 . S
O10 C19 1.259 . A
O11 C16 1.254 . D
C20 O32 1.270 . A
C20 O33 1.262 . A
Tb21 O25 2.426 . S
Tb21 O26 2.476 . S
Tb21 O28 2.276 . S
Tb21 O29 2.313 . S
Tb21 O37 2.292 . S
Tb22 O30 2.292 . S
Tb22 O32 2.426 . S
Tb22 O33 2.476 . S
Tb22 O34 2.276 . S
Tb22 O35 2.313 . S
C23 O35 1.272 . S
C23 O38 1.254 . D
C24 O34 1.259 . A
C24 O37 1.259 . A
O25 C27 1.270 . A
O26 C27 1.262 . A
O28 C39 1.259 . A
O29 C36 1.272 . S
O30 C39 1.259 . A
O31 C36 1.254 . D
C40 O52 1.270 . A
C40 O53 1.262 . A
Tb41 O45 2.426 . S
Tb41 O46 2.476 . S
Tb41 O48 2.276 1_556 S
Tb41 O49 2.313 1_556 S
Tb41 O57 2.292 . S
Tb42 O50 2.292 . S
Tb42 O52 2.426 . S
Tb42 O53 2.476 . S
Tb42 O54 2.276 1_554 S
Tb42 O55 2.313 1_554 S
C43 O55 1.272 . S
C43 O58 1.254 . D
C44 O54 1.259 . A
C44 O57 1.259 . A
O45 C47 1.270 . A
O46 C47 1.262 . A
O48 C59 1.259 . A
O49 C56 1.272 . S
O50 C59 1.259 . A
O51 C56 1.254 . D
C60 O72 1.270 . A
C60 O73 1.262 . A
Tb61 O65 2.426 . S
Tb61 O66 2.476 . S
Tb61 O68 2.276 . S
Tb61 O69 2.313 . S
Tb61 O77 2.292 . S
Tb62 O70 2.292 . S
Tb62 O72 2.426 . S
Tb62 O73 2.476 . S
Tb62 O74 2.276 . S
Tb62 O75 2.313 . S
C63 O75 1.272 . S
C63 O78 1.254 . D
C64 O74 1.259 . A
C64 O77 1.259 . A
O65 C67 1.270 . A
O66 C67 1.262 . A
O68 C79 1.259 . A
O69 C76 1.272 . S
O70 C79 1.259 . A
O71 C76 1.254 . D
C80 O92 1.270 . A
C80 O93 1.262 . A
Tb81 O85 2.426 . S
Tb81 O86 2.476 . S
Tb81 O88 2.276 . S
Tb81 O89 2.313 . S
Tb81 O97 2.292 . S
Tb82 O90 2.292 . S
Tb82 O92 2.426 . S
Tb82 O93 2.476 . S
Tb82 O94 2.276 . S
Tb82 O95 2.313 . S
C83 O95 1.272 . S
C83 O98 1.254 . D
C84 O94 1.259 . A
C84 O97 1.259 . A
O85 C87 1.270 . A
O86 C87 1.262 . A
O88 C99 1.259 . A
O89 C96 1.272 . S
O90 C99 1.259 . A
O91 C96 1.254 . D
C100 O112 1.270 . A
C100 O113 1.262 . A
Tb101 O105 2.426 . S
Tb101 O106 2.476 . S
Tb101 O108 2.276 1_556 S
Tb101 O109 2.313 1_556 S
Tb101 O117 2.292 . S
Tb102 O110 2.292 . S
Tb102 O112 2.426 . S
Tb102 O113 2.476 . S
Tb102 O114 2.276 1_554 S
Tb102 O115 2.313 1_554 S
C103 O115 1.272 . S
C103 O118 1.254 . D
C104 O114 1.259 . A
C104 O117 1.259 . A
O105 C107 1.270 . A
O106 C107 1.262 . A
O108 C119 1.259 . A
O109 C116 1.272 . S
O110 C119 1.259 . A
O111 C116 1.254 . D
C120 O132 1.270 . A
C120 O133 1.262 . A
Tb121 O125 2.426 . S
Tb121 O126 2.476 . S
Tb121 O128 2.276 . S
Tb121 O129 2.313 . S
Tb121 O137 2.292 . S
Tb122 O130 2.292 . S
Tb122 O132 2.426 . S
Tb122 O133 2.476 . S
Tb122 O134 2.276 . S
Tb122 O135 2.313 . S
C123 O135 1.272 . S
C123 O138 1.254 . D
C124 O134 1.259 . A
C124 O137 1.259 . A
O125 C127 1.270 . A
O126 C127 1.262 . A
O128 C139 1.259 . A
O129 C136 1.272 . S
O130 C139 1.259 . A
O131 C136 1.254 . D
C140 O152 1.270 . A
C140 O153 1.262 . A
Tb141 O145 2.426 . S
Tb141 O146 2.476 . S
Tb141 O148 2.276 1_554 S
Tb141 O149 2.313 1_554 S
Tb141 O157 2.292 . S
Tb142 O150 2.292 . S
Tb142 O152 2.426 . S
Tb142 O153 2.476 . S
Tb142 O154 2.276 1_556 S
Tb142 O155 2.313 1_556 S
C143 O155 1.272 . S
C143 O158 1.254 . D
C144 O154 1.259 . A
C144 O157 1.259 . A
O145 C147 1.270 . A
O146 C147 1.262 . A
O148 C159 1.259 . A
O149 C156 1.272 . S
O150 C159 1.259 . A
O151 C156 1.254 . D
C160 H161 0.970 . S
C160 H162 0.970 . S
C160 N171 1.490 . S
C163 C164 1.558 . S
C163 H167 0.969 . S
C163 H168 0.970 . S
C163 N171 1.518 . S
C164 H173 0.968 . S
C164 H174 0.969 . S
C164 C177 1.532 . S
C165 C169 1.561 . S
C165 H170 0.970 . S
C165 N171 1.494 . S
C165 H172 0.969 . S
H166 C177 0.982 . S
C169 H175 0.968 . S
C169 H176 0.972 . S
C169 C177 1.554 . S
C178 H179 0.970 . S
C178 H180 0.970 . S
C178 N189 1.490 . S
C181 C182 1.558 . S
C181 H185 0.969 . S
C181 H186 0.970 . S
C181 N189 1.518 . S
C182 H191 0.968 . S
C182 H192 0.969 . S
C182 C195 1.532 . S
C183 C187 1.561 . S
C183 H188 0.970 . S
C183 N189 1.494 . S
C183 H190 0.969 . S
H184 C195 0.982 . S
C187 H193 0.968 . S
C187 H194 0.972 . S
C187 C195 1.554 . S
C196 H197 0.970 . S
C196 H198 0.970 . S
C196 N207 1.490 . S
C199 C200 1.558 . S
C199 H203 0.969 . S
C199 H204 0.970 . S
C199 N207 1.518 . S
C200 H209 0.968 . S
C200 H210 0.969 . S
C200 C213 1.532 . S
C201 C205 1.561 . S
C201 H206 0.970 . S
C201 N207 1.494 . S
C201 H208 0.969 . S
H202 C213 0.982 . S
C205 H211 0.968 . S
C205 H212 0.972 1_455 S
C205 C213 1.554 . S
C214 H215 0.970 . S
C214 H216 0.970 . S
C214 N225 1.490 . S
C217 C218 1.558 . S
C217 H221 0.969 . S
C217 H222 0.970 . S
C217 N225 1.518 . S
C218 H227 0.968 1_655 S
C218 H228 0.969 . S
C218 C231 1.532 . S
C219 C223 1.561 . S
C219 H224 0.970 . S
C219 N225 1.494 . S
C219 H226 0.969 . S
H220 C231 0.982 . S
C223 H229 0.968 . S
C223 H230 0.972 . S
C223 C231 1.554 . S
C232 H233 0.970 . S
C232 H234 0.970 . S
C232 N243 1.490 . S
C235 C236 1.558 . S
C235 H239 0.969 . S
C235 H240 0.970 . S
C235 N243 1.518 1_556 S
C236 H245 0.968 . S
C236 H246 0.969 . S
C236 C249 1.532 1_556 S
C237 C241 1.561 . S
C237 H242 0.970 . S
C237 N243 1.494 . S
C237 H244 0.969 . S
H238 C249 0.982 . S
C241 H247 0.968 . S
C241 H248 0.972 . S
C241 C249 1.554 . S
C250 H251 0.970 . S
C250 H252 0.970 . S
C250 N261 1.490 . S
C253 C254 1.558 . S
C253 H257 0.969 . S
C253 H258 0.970 . S
C253 N261 1.518 . S
C254 H263 0.968 . S
C254 H264 0.969 . S
C254 C267 1.532 . S
C255 C259 1.561 . S
C255 H260 0.970 . S
C255 N261 1.494 . S
C255 H262 0.969 . S
H256 C267 0.982 . S
C259 H265 0.968 . S
C259 H266 0.972 . S
C259 C267 1.554 . S
C268 H269 0.970 . S
C268 H270 0.970 . S
C268 N279 1.490 . S
C271 C272 1.558 . S
C271 H275 0.969 1_554 S
C271 H276 0.970 . S
C271 N279 1.518 1_554 S
C272 H281 0.968 . S
C272 H282 0.969 . S
C272 C285 1.532 1_554 S
C273 C277 1.561 . S
C273 H278 0.970 . S
C273 N279 1.494 . S
C273 H280 0.969 . S
H274 C285 0.982 . S
C277 H283 0.968 . S
C277 H284 0.972 . S
C277 C285 1.554 . S
C286 H287 0.970 . S
C286 H288 0.970 . S
C286 N297 1.490 . S
C289 C290 1.558 . S
C289 H293 0.969 . S
C289 H294 0.970 . S
C289 N297 1.518 . S
C290 H299 0.968 . S
C290 H300 0.969 . S
C290 C303 1.532 . S
C291 C295 1.561 . S
C291 H296 0.970 . S
C291 N297 1.494 . S
C291 H298 0.969 . S
H292 C303 0.982 . S
C295 H301 0.968 . S
C295 H302 0.972 . S
C295 C303 1.554 . S
C304 H305 0.970 . S
C304 H306 0.970 . S
C304 N315 1.490 . S
C307 C308 1.558 . S
C307 H311 0.969 . S
C307 H312 0.970 . S
C307 N315 1.518 . S
C308 H317 0.968 . S
C308 H318 0.969 . S
C308 C321 1.532 . S
C309 C313 1.561 . S
C309 H314 0.970 . S
C309 N315 1.494 . S
C309 H316 0.969 . S
H310 C321 0.982 . S
C313 H319 0.968 . S
C313 H320 0.972 . S
C313 C321 1.554 . S
C322 H323 0.970 . S
C322 H324 0.970 . S
C322 N333 1.490 1_556 S
C325 C326 1.558 . S
C325 H329 0.969 1_554 S
C325 H330 0.970 . S
C325 N333 1.518 . S
C326 H335 0.968 . S
C326 H336 0.969 . S
C326 C339 1.532 1_554 S
C327 C331 1.561 . S
C327 H332 0.970 . S
C327 N333 1.494 1_556 S
C327 H334 0.969 . S
H328 C339 0.982 . S
C331 H337 0.968 . S
C331 H338 0.972 1_556 S
C331 C339 1.554 . S
C340 H341 0.970 . S
C340 H342 0.970 . S
C340 N351 1.490 . S
C343 C344 1.558 . S
C343 H347 0.969 . S
C343 H348 0.970 . S
C343 N351 1.518 . S
C344 H353 0.968 . S
C344 H354 0.969 . S
C344 C357 1.532 . S
C345 C349 1.561 . S
C345 H350 0.970 . S
C345 N351 1.494 . S
C345 H352 0.969 . S
H346 C357 0.982 . S
C349 H355 0.968 . S
C349 H356 0.972 . S
C349 C357 1.554 . S
C358 H359 0.970 . S
C358 H360 0.970 . S
C358 N369 1.490 . S
C361 C362 1.558 1_556 S
C361 H365 0.969 . S
C361 H366 0.970 1_556 S
C361 N369 1.518 . S
C362 H371 0.968 . S
C362 H372 0.969 . S
C362 C375 1.532 1_554 S
C363 C367 1.561 . S
C363 H368 0.970 . S
C363 N369 1.494 . S
C363 H370 0.969 . S
H364 C375 0.982 . S
C367 H373 0.968 . S
C367 H374 0.972 . S
C367 C375 1.554 . S
C376 H377 0.970 . S
C376 H378 0.970 . S
C376 N387 1.490 . S
C379 C380 1.558 1_556 S
C379 H383 0.969 . S
C379 H384 0.970 . S
C379 N387 1.518 . S
C380 H389 0.968 . S
C380 H390 0.969 . S
C380 C393 1.532 . S
C381 C385 1.561 . S
C381 H386 0.970 . S
C381 N387 1.494 1_554 S
C381 H388 0.969 1_554 S
H382 C393 0.982 1_556 S
C385 H391 0.968 . S
C385 H392 0.972 . S
C385 C393 1.554 . S
C394 H395 0.970 . S
C394 H396 0.970 . S
C394 N405 1.490 . S
C397 C398 1.558 . S
C397 H401 0.969 . S
C397 H402 0.970 . S
C397 N405 1.518 . S
C398 H407 0.968 . S
C398 H408 0.969 . S
C398 C411 1.532 . S
C399 C403 1.561 . S
C399 H404 0.970 . S
C399 N405 1.494 . S
C399 H406 0.969 . S
H400 C411 0.982 . S
C403 H409 0.968 . S
C403 H410 0.972 . S
C403 C411 1.554 . S
C412 H413 0.970 1_455 S
C412 H414 0.970 . S
C412 N423 1.490 1_455 S
C415 C416 1.558 1_545 S
C415 H419 0.963 1_545 S
C415 H420 0.970 . S
C415 N423 1.518 1_454 S
C416 H425 0.968 1_455 S
C416 H426 0.969 . S
C416 C429 1.532 . S
C417 C421 1.561 . S
C417 H422 0.970 . S
C417 N423 1.494 1_565 S
C417 H424 0.969 1_655 S
H418 C429 0.982 . S
C421 H427 0.968 . S
C421 H428 0.972 1_556 S
C421 C429 1.554 1_656 S
C430 H431 0.973 . S
C430 H432 0.966 1_455 S
C430 N441 1.490 . S
C433 C434 1.558 1_565 S
C433 H437 0.969 . S
C433 H438 0.970 . S
C433 N441 1.518 1_655 S
C434 H443 0.968 1_655 S
C434 H444 0.969 . S
C434 C447 1.532 . S
C435 C439 1.561 . S
C435 H440 0.970 . S
C435 N441 1.494 1_545 S
C435 H442 0.969 1_455 S
H436 C447 0.982 . S
C439 H445 0.968 . S
C439 H446 0.972 . S
C439 C447 1.554 1_455 S
C448 H449 0.970 . S
C448 H450 0.970 . S
C448 N459 1.490 . S
C451 C452 1.558 . S
C451 H455 0.969 . S
C451 H456 0.970 . S
C451 N459 1.518 . S
C452 H461 0.968 . S
C452 H462 0.969 . S
C452 C465 1.532 . S
C453 C457 1.561 . S
C453 H458 0.970 . S
C453 N459 1.494 . S
C453 H460 0.969 . S
H454 C465 0.982 . S
C457 H463 0.968 . S
C457 H464 0.972 . S
C457 C465 1.554 . S
C466 H467 0.970 . S
C466 H468 0.970 . S
C466 N477 1.490 . S
C469 C470 1.558 . S
C469 H473 0.969 . S
C469 H474 0.970 . S
C469 N477 1.518 . S
C470 H479 0.968 . S
C470 H480 0.969 . S
C470 C483 1.532 . S
C471 C475 1.561 . S
C471 H476 0.970 . S
C471 N477 1.494 . S
C471 H478 0.969 . S
H472 C483 0.982 . S
C475 H481 0.968 . S
C475 H482 0.972 . S
C475 C483 1.554 . S
C484 H485 0.970 . S
C484 H486 0.970 . S
C484 N495 1.490 . S
C487 C488 1.558 . S
C487 H491 0.969 . S
C487 H492 0.970 . S
C487 N495 1.518 . S
C488 H497 0.968 . S
C488 H498 0.969 . S
C488 C501 1.532 . S
C489 C493 1.561 . S
C489 H494 0.970 . S
C489 N495 1.494 . S
C489 H496 0.969 . S
H490 C501 0.982 . S
C493 H499 0.968 . S
C493 H500 0.972 . S
C493 C501 1.554 . S
C502 H503 0.970 . S
C502 H504 0.970 . S
C502 N513 1.490 . S
C505 C506 1.558 . S
C505 H509 0.969 . S
C505 H510 0.970 . S
C505 N513 1.518 . S
C506 H515 0.968 . S
C506 H516 0.969 . S
C506 C519 1.532 . S
C507 C511 1.561 . S
C507 H512 0.970 . S
C507 N513 1.494 . S
C507 H514 0.969 . S
H508 C519 0.982 . S
C511 H517 0.968 . S
C511 H518 0.972 . S
C511 C519 1.554 . S
C520 H521 0.970 . S
C520 H522 0.970 . S
C520 N531 1.490 . S
C523 C524 1.558 . S
C523 H527 0.969 . S
C523 H528 0.970 . S
C523 N531 1.518 . S
C524 H533 0.968 . S
C524 H534 0.969 . S
C524 C537 1.532 . S
C525 C529 1.561 . S
C525 H530 0.970 . S
C525 N531 1.494 . S
C525 H532 0.969 . S
H526 C537 0.982 . S
C529 H535 0.968 . S
C529 H536 0.972 . S
C529 C537 1.554 . S
C538 H539 0.970 . S
C538 H540 0.970 . S
C538 N549 1.490 . S
C541 C542 1.558 . S
C541 H545 0.969 . S
C541 H546 0.970 . S
C541 N549 1.518 . S
C542 H551 0.968 . S
C542 H552 0.969 . S
C542 C555 1.532 . S
C543 C547 1.561 . S
C543 H548 0.970 . S
C543 N549 1.494 . S
C543 H550 0.969 . S
H544 C555 0.982 . S
C547 H553 0.968 . S
C547 H554 0.972 . S
C547 C555 1.554 . S
C556 H557 0.970 . S
C556 H558 0.970 . S
C556 N567 1.490 . S
C559 C560 1.558 . S
C559 H563 0.969 . S
C559 H564 0.970 . S
C559 N567 1.518 . S
C560 H569 0.968 . S
C560 H570 0.969 . S
C560 C573 1.532 . S
C561 C565 1.561 . S
C561 H566 0.970 . S
C561 N567 1.494 . S
C561 H568 0.969 . S
H562 C573 0.982 . S
C565 H571 0.968 . S
C565 H572 0.972 . S
C565 C573 1.554 . S
C574 H575 0.970 . S
C574 H576 0.970 . S
C574 N585 1.490 . S
C577 C578 1.558 . S
C577 H581 0.969 . S
C577 H582 0.970 . S
C577 N585 1.518 . S
C578 H587 0.968 . S
C578 H588 0.969 . S
C578 C591 1.532 . S
C579 C583 1.561 . S
C579 H584 0.970 . S
C579 N585 1.494 . S
C579 H586 0.969 . S
H580 C591 0.982 . S
C583 H589 0.968 . S
C583 H590 0.972 . S
C583 C591 1.554 . S
C160 C80 0.857 . S
C177 C0 0.709 . S
C178 C27 0.862 . S
C195 C147 0.614 . S
C196 C76 0.933 1_455 S
C213 C40 0.388 . S
C214 C123 1.074 1_655 S
C231 C107 0.302 . S
C232 C4 2.821 . S
C249 C59 2.622 . S
C250 C139 3.085 . S
C267 C39 2.713 . S
C268 C44 2.563 1_655 S
C285 C19 2.431 . S
C286 C79 2.916 1_455 S
C303 C99 2.658 . S
C304 C64 3.036 . S
C321 C84 2.802 . S
C322 C119 2.521 1_456 S
C339 C144 2.471 1_556 S
C340 C124 2.779 1_655 S
C357 C24 2.725 . S
C358 C159 2.810 . S
C375 C104 2.668 . S
C376 C156 1.713 . S
C393 C3 1.773 . S
C394 C36 2.013 . S
C411 C83 1.473 . S
C412 C43 1.934 . S
C429 C116 1.624 1_455 S
C430 C120 2.361 . S
C447 C67 1.858 . S
C448 C60 1.544 . S
C465 C7 1.729 . S
C466 C20 2.209 . S
C483 C103 1.531 . S
C484 C47 2.029 . S
C501 C96 1.770 . S
C502 C63 1.604 . S
C519 C16 1.556 . S
C520 C87 2.021 . S
C537 C56 1.653 . S
C538 C100 2.257 . S
C555 C23 1.676 . S
C556 C136 1.812 . S
C573 C143 1.470 . S
C574 C140 1.841 . S
C591 C127 1.701 . S
