# Generated by pormake.
# Topology wka, (5)-cn, num edge types: 1
# Building blocks:
#     Node 0, Type 0, BuildingBlock: N254, # of connection points: 5
#     Node 1, Type 0, BuildingBlock: N254, # of connection points: 5
#     Node 2, Type 0, BuildingBlock: N254, # of connection points: 5
#     Node 3, Type 0, BuildingBlock: N254, # of connection points: 5
#     Node 4, Type 0, BuildingBlock: N254, # of connection points: 5
#     Node 5, Type 0, BuildingBlock: N254, # of connection points: 5
#     Node 6, Type 0, BuildingBlock: N254, # of connection points: 5
#     Node 7, Type 0, BuildingBlock: N254, # of connection points: 5
#     Node 8, Type 0, BuildingBlock: N254, # of connection points: 5
#     Node 9, Type 0, BuildingBlock: N254, # of connection points: 5
#     Node 10, Type 0, BuildingBlock: N254, # of connection points: 5
#     Node 11, Type 0, BuildingBlock: N254, # of connection points: 5
#     Edge 12, Type (0, 0), BuildingBlock: E37, # of connection points: 2
#     Edge 13, Type (0, 0), BuildingBlock: E37, # of connection points: 2
#     Edge 14, Type (0, 0), BuildingBlock: E37, # of connection points: 2
#     Edge 15, Type (0, 0), BuildingBlock: E37, # of connection points: 2
#     Edge 16, Type (0, 0), BuildingBlock: E37, # of connection points: 2
#     Edge 17, Type (0, 0), BuildingBlock: E37, # of connection points: 2
#     Edge 18, Type (0, 0), BuildingBlock: E37, # of connection points: 2
#     Edge 19, Type (0, 0), BuildingBlock: E37, # of connection points: 2
#     Edge 20, Type (0, 0), BuildingBlock: E37, # of connection points: 2
#     Edge 21, Type (0, 0), BuildingBlock: E37, # of connection points: 2
#     Edge 22, Type (0, 0), BuildingBlock: E37, # of connection points: 2
#     Edge 23, Type (0, 0), BuildingBlock: E37, # of connection points: 2
#     Edge 24, Type (0, 0), BuildingBlock: E37, # of connection points: 2
#     Edge 25, Type (0, 0), BuildingBlock: E37, # of connection points: 2
#     Edge 26, Type (0, 0), BuildingBlock: E37, # of connection points: 2
#     Edge 27, Type (0, 0), BuildingBlock: E37, # of connection points: 2
#     Edge 28, Type (0, 0), BuildingBlock: E37, # of connection points: 2
#     Edge 29, Type (0, 0), BuildingBlock: E37, # of connection points: 2
#     Edge 30, Type (0, 0), BuildingBlock: E37, # of connection points: 2
#     Edge 31, Type (0, 0), BuildingBlock: E37, # of connection points: 2
#     Edge 32, Type (0, 0), BuildingBlock: E37, # of connection points: 2
#     Edge 33, Type (0, 0), BuildingBlock: E37, # of connection points: 2
#     Edge 34, Type (0, 0), BuildingBlock: E37, # of connection points: 2
#     Edge 35, Type (0, 0), BuildingBlock: E37, # of connection points: 2
#     Edge 36, Type (0, 0), BuildingBlock: E37, # of connection points: 2
#     Edge 37, Type (0, 0), BuildingBlock: E37, # of connection points: 2
#     Edge 38, Type (0, 0), BuildingBlock: E37, # of connection points: 2
#     Edge 39, Type (0, 0), BuildingBlock: E37, # of connection points: 2
#     Edge 40, Type (0, 0), BuildingBlock: E37, # of connection points: 2
#     Edge 41, Type (0, 0), BuildingBlock: E37, # of connection points: 2
# Relax obj value: 0.259
# Max RMSD: 0.201
# Mean RMSD: 0.201
data_wka+N254+E37
_symmetry_space_group_name_H-M    P1
_symmetry_Int_Tables_number       1
_symmetry_cell_setting            triclinic
loop_
_symmetry_equiv_pos_as_xyz
'x, y, z'
_cell_length_a     42.770
_cell_length_b     42.770
_cell_length_c     13.244
_cell_angle_alpha  89.999
_cell_angle_beta   90.001
_cell_angle_gamma  119.981
loop_
_atom_site_label
_atom_site_type_symbol
_atom_site_fract_x
_atom_site_fract_y
_atom_site_fract_z
_atom_type_partial_charge
C0 C 0.30703 0.45568 0.77962 0.00000
C1 C 0.36098 0.41303 0.50034 0.00000
Cd2 Cd 0.31045 0.44537 0.57898 0.00000
Cd3 Cd 0.33193 0.42829 0.32390 0.00000
C4 C 0.34533 0.43278 0.12167 0.00000
O5 O 0.36745 0.48841 0.54196 0.00000
O6 O 0.36208 0.48666 0.37307 0.00000
O7 O 0.28165 0.43151 0.36281 0.00000
O8 O 0.28704 0.47073 0.48113 0.00000
O9 O 0.30195 0.47546 0.72144 0.00000
O10 O 0.31488 0.43289 0.74768 0.00000
O11 O 0.33031 0.40744 0.52456 0.00000
O12 O 0.37348 0.42146 0.41267 0.00000
O13 O 0.31574 0.42839 0.15106 0.00000
C14 C 0.37811 0.50014 0.45524 0.00000
C15 C 0.27977 0.45875 0.39358 0.00000
O16 O 0.36841 0.43523 0.18139 0.00000
C17 C 0.85143 0.30700 0.94625 0.00000
C18 C 0.94798 0.36090 0.66691 0.00000
Cd19 Cd 0.86515 0.31040 0.74560 0.00000
Cd20 Cd 0.90368 0.33185 0.49050 0.00000
C21 C 0.91257 0.34524 0.28826 0.00000
O22 O 0.87908 0.36740 0.70855 0.00000
O23 O 0.87545 0.36201 0.53966 0.00000
O24 O 0.85020 0.28159 0.52946 0.00000
O25 O 0.81638 0.28699 0.64778 0.00000
O26 O 0.82658 0.30192 0.88808 0.00000
O27 O 0.88206 0.31484 0.91430 0.00000
O28 O 0.92292 0.33024 0.69116 0.00000
O29 O 0.95205 0.37341 0.57924 0.00000
O30 O 0.88738 0.31565 0.31767 0.00000
C31 C 0.87801 0.37806 0.62182 0.00000
C32 C 0.82108 0.27971 0.56023 0.00000
O33 O 0.93319 0.36832 0.34796 0.00000
C34 C 0.85131 0.54433 0.22014 0.00000
C35 C 0.94788 0.58698 0.49945 0.00000
Cd36 Cd 0.86504 0.55465 0.42079 0.00000
Cd37 Cd 0.90359 0.57173 0.67587 0.00000
C38 C 0.91250 0.56724 0.87811 0.00000
O39 O 0.87902 0.51161 0.45782 0.00000
O40 O 0.87540 0.51336 0.62671 0.00000
O41 O 0.85009 0.56850 0.63695 0.00000
O42 O 0.81628 0.52929 0.51862 0.00000
O43 O 0.82647 0.52456 0.27832 0.00000
O44 O 0.88194 0.56712 0.25209 0.00000
O45 O 0.92281 0.59258 0.47522 0.00000
O46 O 0.95197 0.57856 0.58711 0.00000
O47 O 0.88730 0.57163 0.84871 0.00000
C48 C 0.87796 0.49988 0.54454 0.00000
C49 C 0.82098 0.54127 0.60618 0.00000
O50 O 0.93313 0.56479 0.81839 0.00000
C51 C 0.30700 0.85142 0.38707 0.00000
C52 C 0.36090 0.94797 0.66642 0.00000
Cd53 Cd 0.31040 0.86514 0.58773 0.00000
Cd54 Cd 0.33186 0.90367 0.84282 0.00000
C55 C 0.34524 0.91256 0.04507 0.00000
O56 O 0.36740 0.87908 0.62478 0.00000
O57 O 0.36202 0.87545 0.79367 0.00000
O58 O 0.28159 0.85019 0.80387 0.00000
O59 O 0.28700 0.81637 0.68554 0.00000
O60 O 0.30193 0.82657 0.44524 0.00000
O61 O 0.31484 0.88205 0.41903 0.00000
O62 O 0.33024 0.92291 0.64217 0.00000
O63 O 0.37341 0.95205 0.75409 0.00000
O64 O 0.31566 0.88737 0.01566 0.00000
C65 C 0.37806 0.87801 0.71151 0.00000
C66 C 0.27972 0.82107 0.77310 0.00000
O67 O 0.36832 0.93318 0.98537 0.00000
C68 C 0.69299 0.14855 0.88711 0.00000
C69 C 0.63907 0.05200 0.16645 0.00000
Cd70 Cd 0.68958 0.13483 0.08777 0.00000
Cd71 Cd 0.66813 0.09630 0.34286 0.00000
C72 C 0.65474 0.08741 0.54511 0.00000
O73 O 0.63259 0.12090 0.12481 0.00000
O74 O 0.63797 0.12453 0.29370 0.00000
O75 O 0.71839 0.14978 0.30391 0.00000
O76 O 0.71299 0.18360 0.18558 0.00000
O77 O 0.69806 0.17341 0.94528 0.00000
O78 O 0.68515 0.11792 0.91907 0.00000
O79 O 0.66974 0.07707 0.14221 0.00000
O80 O 0.62657 0.04793 0.25412 0.00000
O81 O 0.68433 0.11260 0.51569 0.00000
C82 C 0.62192 0.12197 0.21153 0.00000
C83 C 0.72027 0.17890 0.27314 0.00000
O84 O 0.63166 0.06679 0.48540 0.00000
C85 C 0.54434 0.69299 0.05370 0.00000
C86 C 0.58699 0.63905 0.33299 0.00000
Cd87 Cd 0.55466 0.68957 0.25435 0.00000
Cd88 Cd 0.57174 0.66809 0.50942 0.00000
C89 C 0.56725 0.65469 0.71166 0.00000
O90 O 0.51162 0.63257 0.29137 0.00000
O91 O 0.51337 0.63794 0.46025 0.00000
O92 O 0.56851 0.71836 0.47051 0.00000
O93 O 0.52929 0.71297 0.35218 0.00000
O94 O 0.52456 0.69806 0.11188 0.00000
O95 O 0.56713 0.68514 0.08564 0.00000
O96 O 0.59258 0.66972 0.30877 0.00000
O97 O 0.57857 0.62654 0.42066 0.00000
O98 O 0.57163 0.68428 0.68227 0.00000
C99 C 0.49989 0.62190 0.37809 0.00000
C100 C 0.54127 0.72025 0.43974 0.00000
O101 O 0.56480 0.63161 0.65194 0.00000
C102 C 0.14867 0.45566 0.72014 0.00000
C103 C 0.05210 0.41301 0.99990 0.00000
Cd104 Cd 0.13494 0.44535 0.92079 0.00000
Cd105 Cd 0.09640 0.42827 0.17587 0.00000
C106 C 0.08749 0.43276 0.37811 0.00000
O107 O 0.12097 0.48839 0.95781 0.00000
O108 O 0.12459 0.48664 0.12670 0.00000
O109 O 0.14990 0.43150 0.13694 0.00000
O110 O 0.18371 0.47071 0.01862 0.00000
O111 O 0.17351 0.47544 0.77832 0.00000
O112 O 0.11804 0.43287 0.75208 0.00000
O113 O 0.07718 0.40742 0.97521 0.00000
O114 O 0.04802 0.42144 0.08711 0.00000
O115 O 0.11270 0.42837 0.34871 0.00000
C116 C 0.12202 0.50012 0.04453 0.00000
C117 C 0.17901 0.45874 0.10618 0.00000
O118 O 0.06686 0.43521 0.31839 0.00000
C119 C 0.45569 0.30703 0.55370 0.00000
C120 C 0.41304 0.36097 0.83298 0.00000
Cd121 Cd 0.44537 0.31045 0.75434 0.00000
Cd122 Cd 0.42829 0.33193 0.00941 0.00000
C123 C 0.43278 0.34533 0.21165 0.00000
O124 O 0.48841 0.36744 0.79136 0.00000
O125 O 0.48666 0.36207 0.96025 0.00000
O126 O 0.43152 0.28165 0.97050 0.00000
O127 O 0.47073 0.28704 0.85219 0.00000
O128 O 0.47547 0.30195 0.61188 0.00000
O129 O 0.43290 0.31488 0.58563 0.00000
O130 O 0.40744 0.33030 0.80875 0.00000
O131 O 0.42146 0.37348 0.92064 0.00000
O132 O 0.42839 0.31574 0.18226 0.00000
C133 C 0.50014 0.37811 0.87808 0.00000
C134 C 0.45876 0.27977 0.93974 0.00000
O135 O 0.43523 0.36841 0.15193 0.00000
C136 C 0.54431 0.85133 0.11320 0.00000
C137 C 0.58696 0.94790 0.83390 0.00000
Cd138 Cd 0.55463 0.86506 0.91256 0.00000
Cd139 Cd 0.57171 0.90360 0.65748 0.00000
C140 C 0.56722 0.91251 0.45524 0.00000
O141 O 0.51159 0.87903 0.87553 0.00000
O142 O 0.51334 0.87541 0.70664 0.00000
O143 O 0.56849 0.85010 0.69640 0.00000
O144 O 0.52927 0.81630 0.81472 0.00000
O145 O 0.52454 0.82648 0.05503 0.00000
O146 O 0.56710 0.88195 0.08126 0.00000
O147 O 0.59256 0.92282 0.85814 0.00000
O148 O 0.57854 0.95198 0.74624 0.00000
O149 O 0.57161 0.88731 0.48464 0.00000
C150 C 0.49986 0.87797 0.78880 0.00000
C151 C 0.54125 0.82099 0.72716 0.00000
O152 O 0.56477 0.93314 0.51496 0.00000
C153 C 0.69301 0.54434 0.27964 0.00000
C154 C 0.63906 0.58699 0.00010 0.00000
Cd155 Cd 0.68958 0.55466 0.07900 0.00000
Cd156 Cd 0.66810 0.57174 0.82392 0.00000
C157 C 0.65470 0.56725 0.62168 0.00000
O158 O 0.63259 0.51162 0.04197 0.00000
O159 O 0.63796 0.51337 0.87309 0.00000
O160 O 0.71838 0.56851 0.86284 0.00000
O161 O 0.71299 0.52929 0.98116 0.00000
O162 O 0.69808 0.52456 0.22146 0.00000
O163 O 0.68516 0.56713 0.24770 0.00000
O164 O 0.66973 0.59258 0.02458 0.00000
O165 O 0.62655 0.57857 0.91269 0.00000
O166 O 0.68429 0.57163 0.65108 0.00000
C167 C 0.62192 0.49989 0.95525 0.00000
C168 C 0.72026 0.54127 0.89360 0.00000
O169 O 0.63163 0.56480 0.68141 0.00000
C170 C 0.14857 0.69298 0.44623 0.00000
C171 C 0.05202 0.63908 0.16688 0.00000
Cd172 Cd 0.13484 0.68958 0.24558 0.00000
Cd173 Cd 0.09631 0.66813 0.99048 0.00000
C174 C 0.08742 0.65474 0.78823 0.00000
O175 O 0.12091 0.63258 0.20853 0.00000
O176 O 0.12454 0.63796 0.03964 0.00000
O177 O 0.14979 0.71839 0.02943 0.00000
O178 O 0.18361 0.71299 0.14776 0.00000
O179 O 0.17342 0.69805 0.38806 0.00000
O180 O 0.11793 0.68514 0.41427 0.00000
O181 O 0.07708 0.66974 0.19113 0.00000
O182 O 0.04794 0.62657 0.07921 0.00000
O183 O 0.11261 0.68432 0.81765 0.00000
C184 C 0.12198 0.62192 0.12180 0.00000
C185 C 0.17891 0.72026 0.06021 0.00000
O186 O 0.06680 0.63166 0.84794 0.00000
C187 C 0.45566 0.14868 0.61318 0.00000
C188 C 0.41301 0.05212 0.33388 0.00000
Cd189 Cd 0.44534 0.13496 0.41253 0.00000
Cd190 Cd 0.42826 0.09641 0.15745 0.00000
C191 C 0.43275 0.08750 0.95521 0.00000
O192 O 0.48838 0.12098 0.37551 0.00000
O193 O 0.48663 0.12460 0.20662 0.00000
O194 O 0.43149 0.14991 0.19638 0.00000
O195 O 0.47071 0.18372 0.31470 0.00000
O196 O 0.47544 0.17353 0.55501 0.00000
O197 O 0.43287 0.11806 0.58124 0.00000
O198 O 0.40741 0.07720 0.35811 0.00000
O199 O 0.42143 0.04803 0.24621 0.00000
O200 O 0.42837 0.11271 0.98461 0.00000
C201 C 0.50011 0.12203 0.28879 0.00000
C202 C 0.45873 0.17902 0.22715 0.00000
O203 O 0.43520 0.06687 0.01493 0.00000
N204 N 0.46331 0.56000 0.30357 0.00000
N205 N 0.42795 0.52464 0.32535 0.00000
C206 C 0.41070 0.53046 0.42032 0.00000
C207 C 0.43540 0.56941 0.45723 0.00000
N208 N 0.46791 0.58766 0.38507 0.00000
H209 H 0.42777 0.57964 0.52722 0.00000
N210 N 0.83095 0.43371 0.58201 0.00000
N211 N 0.83096 0.39835 0.60383 0.00000
C212 C 0.87038 0.40663 0.60217 0.00000
C213 C 0.89473 0.44711 0.57931 0.00000
N214 N 0.87036 0.46384 0.56686 0.00000
H215 H 0.92524 0.45924 0.57449 0.00000
N216 N 0.42809 0.87672 0.61344 0.00000
N217 N 0.46345 0.87671 0.63527 0.00000
C218 C 0.46790 0.87662 0.75063 0.00000
C219 C 0.43529 0.87657 0.80010 0.00000
N220 N 0.41069 0.87663 0.71531 0.00000
H221 H 0.43302 0.87650 0.88587 0.00000
N222 N 0.55150 0.12344 0.38688 0.00000
N223 N 0.58685 0.12343 0.36507 0.00000
C224 C 0.59133 0.12338 0.24971 0.00000
C225 C 0.55874 0.12337 0.20022 0.00000
N226 N 0.53413 0.12341 0.28500 0.00000
H227 H 0.55649 0.12333 0.11445 0.00000
N228 N 0.07763 0.52141 0.06783 0.00000
N229 N 0.07761 0.55677 0.08966 0.00000
C230 C 0.11712 0.58723 0.10022 0.00000
C231 C 0.14155 0.57069 0.08492 0.00000
N232 N 0.11714 0.53001 0.06491 0.00000
H233 H 0.17213 0.58854 0.08956 0.00000
N234 N 0.56760 0.40446 0.84316 0.00000
N235 N 0.60296 0.43982 0.86495 0.00000
C236 C 0.59355 0.46470 0.92574 0.00000
C237 C 0.55237 0.44472 0.94153 0.00000
N238 N 0.53634 0.40749 0.89049 0.00000
H239 H 0.53936 0.45827 0.98506 0.00000
N240 N 0.40888 0.38395 0.54451 0.00000
N241 N 0.42106 0.37177 0.63874 0.00000
C242 C 0.40948 0.38470 0.73264 0.00000
C243 C 0.39015 0.40488 0.69644 0.00000
N244 N 0.38977 0.40441 0.58018 0.00000
H245 H 0.37921 0.41686 0.75388 0.00000
N246 N 0.03810 0.38775 0.82798 0.00000
N247 N 0.01373 0.37555 0.73378 0.00000
C248 C 0.98386 0.38516 0.74981 0.00000
C249 C 0.98977 0.40331 0.85393 0.00000
N250 N 0.02329 0.40490 0.90224 0.00000
H251 H 0.97059 0.41273 0.88159 0.00000
N252 N 0.98363 0.62007 0.22840 0.00000
N253 N 0.95926 0.60788 0.32261 0.00000
C254 C 0.97634 0.59449 0.40149 0.00000
C255 C 0.01127 0.59841 0.35605 0.00000
N256 N 0.01577 0.61422 0.24908 0.00000
H257 H 0.02844 0.59002 0.40187 0.00000
N258 N 0.42786 0.98287 0.53724 0.00000
N259 N 0.44006 0.00724 0.44304 0.00000
C260 C 0.41205 0.01907 0.42258 0.00000
C261 C 0.38253 0.00202 0.50413 0.00000
N262 N 0.39231 0.97964 0.57499 0.00000
H263 H 0.35887 0.00724 0.50353 0.00000
N264 N 0.55316 0.97541 0.97818 0.00000
N265 N 0.56536 0.99990 0.07240 0.00000
C266 C 0.60674 0.01797 0.07983 0.00000
C267 C 0.62012 0.00486 0.99022 0.00000
N268 N 0.58700 0.97856 0.92740 0.00000
H269 H 0.65018 0.01500 0.98073 0.00000
N270 N 0.57454 0.59551 0.05250 0.00000
N271 N 0.56235 0.60769 0.14673 0.00000
C272 C 0.58828 0.61251 0.23374 0.00000
C273 C 0.61648 0.60331 0.19329 0.00000
N274 N 0.60799 0.59281 0.08128 0.00000
H275 H 0.63852 0.60507 0.24540 0.00000
N276 N 0.27319 0.46449 0.20179 0.00000
N277 N 0.24800 0.46449 0.11872 0.00000
C278 C 0.21576 0.46451 0.17043 0.00000
C279 C 0.22103 0.46453 0.28545 0.00000
N280 N 0.25653 0.46452 0.30483 0.00000
H281 H 0.20015 0.46454 0.33892 0.00000
N282 N 0.81627 0.25833 0.37983 0.00000
N283 N 0.79105 0.23311 0.29686 0.00000
C284 C 0.75229 0.21363 0.33886 0.00000
C285 C 0.75356 0.22682 0.44778 0.00000
N286 N 0.79310 0.25444 0.47310 0.00000
H287 H 0.72763 0.21582 0.49372 0.00000
N288 N 0.78348 0.53549 0.88103 0.00000
N289 N 0.80867 0.53549 0.79795 0.00000
C290 C 0.79199 0.53550 0.69491 0.00000
C291 C 0.75649 0.53550 0.71432 0.00000
N292 N 0.75123 0.53550 0.82935 0.00000
H293 H 0.73950 0.53550 0.64800 0.00000
N294 N 0.25598 0.76367 0.02931 0.00000
N295 N 0.28120 0.78889 0.94634 0.00000
C296 C 0.25757 0.78935 0.85925 0.00000
C297 C 0.21775 0.76441 0.88840 0.00000
N298 N 0.21677 0.74855 0.99350 0.00000
H299 H 0.19538 0.76069 0.83441 0.00000
N300 N 0.56785 0.77647 0.68839 0.00000
N301 N 0.56786 0.75128 0.60532 0.00000
C302 C 0.53991 0.74683 0.52492 0.00000
C303 C 0.52263 0.76927 0.55829 0.00000
N304 N 0.53990 0.78759 0.65932 0.00000
H305 H 0.50100 0.76990 0.50949 0.00000
N306 N 0.42066 0.23111 0.06763 0.00000
N307 N 0.42065 0.20591 0.15072 0.00000
C308 C 0.45851 0.21001 0.15417 0.00000
C309 C 0.48193 0.23774 0.07323 0.00000
N310 N 0.45853 0.25078 0.01975 0.00000
H311 H 0.51124 0.24499 0.06247 0.00000
N312 N 0.28386 0.41202 0.89168 0.00000
N313 N 0.29403 0.39869 0.98747 0.00000
C314 C 0.33042 0.42949 0.02614 0.00000
C315 C 0.34275 0.46186 0.95426 0.00000
N316 N 0.31397 0.45106 0.87116 0.00000
H317 H 0.36928 0.48787 0.96869 0.00000
N318 N 0.86411 0.34184 0.22501 0.00000
N319 N 0.84062 0.33169 0.12920 0.00000
C320 C 0.85870 0.32047 0.04744 0.00000
C321 C 0.89335 0.32367 0.09272 0.00000
N322 N 0.89669 0.33688 0.20246 0.00000
H323 H 0.91114 0.31662 0.04493 0.00000
N324 N 0.84094 0.55949 0.04665 0.00000
N325 N 0.86444 0.57282 0.95087 0.00000
C326 C 0.89666 0.56663 0.96524 0.00000
C327 C 0.89309 0.54947 0.06990 0.00000
N328 N 0.85865 0.54506 0.12022 0.00000
H329 H 0.91424 0.54251 0.09653 0.00000
N330 N 0.36622 0.89194 0.30102 0.00000
N331 N 0.37636 0.91542 0.20522 0.00000
C332 C 0.34160 0.90370 0.14411 0.00000
C333 C 0.30997 0.87296 0.20215 0.00000
N334 N 0.32519 0.86570 0.29912 0.00000
H335 H 0.28142 0.86008 0.17035 0.00000
N336 N 0.70869 0.10977 0.66939 0.00000
N337 N 0.71884 0.13326 0.76520 0.00000
C338 C 0.68642 0.13772 0.79426 0.00000
C339 C 0.65624 0.11700 0.71642 0.00000
N340 N 0.67000 0.09972 0.63925 0.00000
H341 H 0.62950 0.11665 0.72341 0.00000
N342 N 0.60078 0.67965 0.89301 0.00000
N343 N 0.58745 0.68982 0.98879 0.00000
C344 C 0.54888 0.68245 0.96860 0.00000
C345 C 0.53838 0.66773 0.86035 0.00000
N346 N 0.57045 0.66600 0.81363 0.00000
H347 H 0.51068 0.66038 0.82922 0.00000
N348 N 0.10363 0.46829 0.64337 0.00000
N349 N 0.08014 0.45496 0.54757 0.00000
C350 C 0.09576 0.43717 0.47844 0.00000
C351 C 0.12890 0.43950 0.53150 0.00000
N352 N 0.13376 0.45874 0.63343 0.00000
H353 H 0.14478 0.42788 0.49349 0.00000
N354 N 0.49071 0.33073 0.36980 0.00000
N355 N 0.47738 0.34090 0.27401 0.00000
C356 C 0.44025 0.33683 0.29736 0.00000
C357 C 0.43063 0.32414 0.40758 0.00000
N358 N 0.46182 0.32037 0.45234 0.00000
H359 H 0.40404 0.31934 0.44115 0.00000
N360 N 0.57536 0.85330 0.26132 0.00000
N361 N 0.58869 0.87679 0.35711 0.00000
C362 C 0.56878 0.89836 0.36465 0.00000
C363 C 0.54314 0.88820 0.27352 0.00000
N364 N 0.54721 0.86035 0.20966 0.00000
H365 H 0.52557 0.90110 0.26386 0.00000
N366 N 0.71015 0.57779 0.54231 0.00000
N367 N 0.72032 0.56445 0.44653 0.00000
C368 C 0.68664 0.54574 0.37868 0.00000
C369 C 0.65564 0.54751 0.43252 0.00000
N370 N 0.67017 0.56731 0.53364 0.00000
H371 H 0.62792 0.53518 0.39549 0.00000
N372 N 0.09757 0.68067 0.50318 0.00000
N373 N 0.07409 0.67052 0.59898 0.00000
C374 C 0.09486 0.66479 0.68521 0.00000
C375 C 0.13118 0.67139 0.64271 0.00000
N376 N 0.13286 0.68120 0.53021 0.00000
H377 H 0.15106 0.66859 0.69396 0.00000
N378 N 0.49582 0.14519 0.77084 0.00000
N379 N 0.48249 0.12170 0.86664 0.00000
C380 C 0.44092 0.10144 0.86593 0.00000
C381 C 0.42857 0.11241 0.76971 0.00000
N382 N 0.46249 0.13945 0.71094 0.00000
H383 H 0.39855 0.10053 0.75366 0.00000
loop_
_geom_bond_atom_site_label_1
_geom_bond_atom_site_label_2
_geom_bond_distance
_geom_bond_site_symmetry_2
_ccdc_geom_bond_type
C0 O9 1.241 . A
C0 O10 1.253 . A
C1 O11 1.252 . A
C1 O12 1.254 . A
Cd2 O5 2.255 . S
Cd2 O8 2.223 . S
Cd2 O9 2.412 . S
Cd2 O10 2.327 . S
Cd2 O11 2.291 . S
Cd3 O6 2.259 . S
Cd3 O7 2.281 . S
Cd3 O12 2.268 . S
Cd3 O13 2.392 . S
Cd3 O16 2.371 . S
C4 O13 1.245 . A
C4 O16 1.228 . A
O5 C14 1.245 . A
O6 C14 1.262 . A
O7 C15 1.274 . A
O8 C15 1.243 . A
C17 O26 1.241 . A
C17 O27 1.253 . A
C18 O28 1.252 . A
C18 O29 1.254 . A
Cd19 O22 2.255 . S
Cd19 O25 2.223 . S
Cd19 O26 2.412 . S
Cd19 O27 2.327 . S
Cd19 O28 2.291 . S
Cd20 O23 2.259 . S
Cd20 O24 2.281 . S
Cd20 O29 2.268 . S
Cd20 O30 2.392 . S
Cd20 O33 2.371 . S
C21 O30 1.245 . A
C21 O33 1.228 . A
O22 C31 1.245 . A
O23 C31 1.262 . A
O24 C32 1.274 . A
O25 C32 1.243 . A
C34 O43 1.241 . A
C34 O44 1.253 . A
C35 O45 1.252 . A
C35 O46 1.254 . A
Cd36 O39 2.255 . S
Cd36 O42 2.223 . S
Cd36 O43 2.412 . S
Cd36 O44 2.327 . S
Cd36 O45 2.291 . S
Cd37 O40 2.259 . S
Cd37 O41 2.281 . S
Cd37 O46 2.268 . S
Cd37 O47 2.392 . S
Cd37 O50 2.371 . S
C38 O47 1.245 . A
C38 O50 1.228 . A
O39 C48 1.245 . A
O40 C48 1.262 . A
O41 C49 1.274 . A
O42 C49 1.243 . A
C51 O60 1.241 . A
C51 O61 1.253 . A
C52 O62 1.252 . A
C52 O63 1.254 . A
Cd53 O56 2.255 . S
Cd53 O59 2.223 . S
Cd53 O60 2.412 . S
Cd53 O61 2.327 . S
Cd53 O62 2.291 . S
Cd54 O57 2.259 . S
Cd54 O58 2.281 . S
Cd54 O63 2.268 . S
Cd54 O64 2.392 1_556 S
Cd54 O67 2.371 . S
C55 O64 1.245 . A
C55 O67 1.228 1_554 A
O56 C65 1.245 . A
O57 C65 1.262 . A
O58 C66 1.274 . A
O59 C66 1.243 . A
C68 O77 1.241 . A
C68 O78 1.253 . A
C69 O79 1.252 . A
C69 O80 1.254 . A
Cd70 O73 2.255 . S
Cd70 O76 2.223 . S
Cd70 O77 2.412 1_554 S
Cd70 O78 2.327 1_554 S
Cd70 O79 2.291 . S
Cd71 O74 2.259 . S
Cd71 O75 2.281 . S
Cd71 O80 2.268 . S
Cd71 O81 2.392 . S
Cd71 O84 2.371 . S
C72 O81 1.245 . A
C72 O84 1.228 . A
O73 C82 1.245 . A
O74 C82 1.262 . A
O75 C83 1.274 . A
O76 C83 1.243 . A
C85 O94 1.241 . A
C85 O95 1.253 . A
C86 O96 1.252 . A
C86 O97 1.254 . A
Cd87 O90 2.255 . S
Cd87 O93 2.223 . S
Cd87 O94 2.412 . S
Cd87 O95 2.327 . S
Cd87 O96 2.291 . S
Cd88 O91 2.259 . S
Cd88 O92 2.281 . S
Cd88 O97 2.268 . S
Cd88 O98 2.392 . S
Cd88 O101 2.371 . S
C89 O98 1.245 . A
C89 O101 1.228 . A
O90 C99 1.245 . A
O91 C99 1.262 . A
O92 C100 1.274 . A
O93 C100 1.243 . A
C102 O111 1.241 . A
C102 O112 1.253 . A
C103 O113 1.253 . A
C103 O114 1.248 1_556 A
Cd104 O107 2.255 . S
Cd104 O110 2.223 1_556 S
Cd104 O111 2.412 . S
Cd104 O112 2.327 . S
Cd104 O113 2.291 . S
Cd105 O108 2.259 . S
Cd105 O109 2.281 . S
Cd105 O114 2.268 . S
Cd105 O115 2.392 . S
Cd105 O118 2.371 . S
C106 O115 1.245 . A
C106 O118 1.228 . A
O107 C116 1.245 1_556 A
O108 C116 1.262 . A
O109 C117 1.274 . A
O110 C117 1.243 . A
C119 O128 1.241 . A
C119 O129 1.253 . A
C120 O130 1.252 . A
C120 O131 1.254 . A
Cd121 O124 2.255 . S
Cd121 O127 2.223 . S
Cd121 O128 2.412 . S
Cd121 O129 2.327 . S
Cd121 O130 2.291 . S
Cd122 O125 2.259 1_554 S
Cd122 O126 2.281 1_554 S
Cd122 O131 2.268 1_554 S
Cd122 O132 2.392 . S
Cd122 O135 2.371 . S
C123 O132 1.245 . A
C123 O135 1.228 . A
O124 C133 1.245 . A
O125 C133 1.262 . A
O126 C134 1.274 . A
O127 C134 1.243 . A
C136 O145 1.241 . A
C136 O146 1.253 . A
C137 O147 1.252 . A
C137 O148 1.254 . A
Cd138 O141 2.255 . S
Cd138 O144 2.223 . S
Cd138 O145 2.412 1_556 S
Cd138 O146 2.327 1_556 S
Cd138 O147 2.291 . S
Cd139 O142 2.259 . S
Cd139 O143 2.281 . S
Cd139 O148 2.268 . S
Cd139 O149 2.392 . S
Cd139 O152 2.371 . S
C140 O149 1.245 . A
C140 O152 1.228 . A
O141 C150 1.245 . A
O142 C150 1.262 . A
O143 C151 1.274 . A
O144 C151 1.243 . A
C153 O162 1.241 . A
C153 O163 1.253 . A
C154 O164 1.253 . A
C154 O165 1.250 1_554 A
Cd155 O158 2.255 . S
Cd155 O161 2.223 1_554 S
Cd155 O162 2.412 . S
Cd155 O163 2.327 . S
Cd155 O164 2.291 . S
Cd156 O159 2.259 . S
Cd156 O160 2.281 . S
Cd156 O165 2.268 . S
Cd156 O166 2.392 . S
Cd156 O169 2.371 . S
C157 O166 1.245 . A
C157 O169 1.228 . A
O158 C167 1.245 1_554 A
O159 C167 1.262 . A
O160 C168 1.274 . A
O161 C168 1.243 . A
C170 O179 1.241 . A
C170 O180 1.253 . A
C171 O181 1.252 . A
C171 O182 1.254 . A
Cd172 O175 2.255 . S
Cd172 O178 2.223 . S
Cd172 O179 2.412 . S
Cd172 O180 2.327 . S
Cd172 O181 2.291 . S
Cd173 O176 2.259 1_556 S
Cd173 O177 2.281 1_556 S
Cd173 O182 2.268 1_556 S
Cd173 O183 2.392 . S
Cd173 O186 2.371 . S
C174 O183 1.245 . A
C174 O186 1.228 . A
O175 C184 1.245 . A
O176 C184 1.262 . A
O177 C185 1.274 . A
O178 C185 1.243 . A
C187 O196 1.241 . A
C187 O197 1.253 . A
C188 O198 1.252 . A
C188 O199 1.254 . A
Cd189 O192 2.255 . S
Cd189 O195 2.223 . S
Cd189 O196 2.412 . S
Cd189 O197 2.327 . S
Cd189 O198 2.291 . S
Cd190 O193 2.259 . S
Cd190 O194 2.281 . S
Cd190 O199 2.268 . S
Cd190 O200 2.392 1_554 S
Cd190 O203 2.371 . S
C191 O200 1.245 . A
C191 O203 1.228 1_556 A
O192 C201 1.245 . A
O193 C201 1.262 . A
O194 C202 1.274 . A
O195 C202 1.243 . A
N204 N205 1.540 . A
N204 N208 1.540 . A
N205 C206 1.540 . A
C206 C207 1.540 . A
C207 N208 1.540 . A
C207 H209 1.140 . S
N210 N211 1.540 . A
N210 N214 1.540 . A
N211 C212 1.540 . A
C212 C213 1.540 . A
C213 N214 1.540 . A
C213 H215 1.140 . S
N216 N217 1.540 . A
N216 N220 1.540 . A
N217 C218 1.540 . A
C218 C219 1.540 . A
C219 N220 1.540 . A
C219 H221 1.140 . S
N222 N223 1.540 . A
N222 N226 1.540 . A
N223 C224 1.540 . A
C224 C225 1.540 . A
C225 N226 1.540 . A
C225 H227 1.140 . S
N228 N229 1.540 . A
N228 N232 1.540 . A
N229 C230 1.540 . A
C230 C231 1.540 . A
C231 N232 1.540 . A
C231 H233 1.140 . S
N234 N235 1.540 . A
N234 N238 1.540 . A
N235 C236 1.540 . A
C236 C237 1.540 . A
C237 N238 1.540 . A
C237 H239 1.140 . S
N240 N241 1.540 . A
N240 N244 1.540 . A
N241 C242 1.540 . A
C242 C243 1.540 . A
C243 N244 1.540 . A
C243 H245 1.140 . S
N246 N247 1.540 . A
N246 N250 1.540 . A
N247 C248 1.540 1_455 A
C248 C249 1.540 . A
C249 N250 1.540 1_655 A
C249 H251 1.140 . S
N252 N253 1.540 . A
N252 N256 1.540 1_655 A
N253 C254 1.540 . A
C254 C255 1.540 1_655 A
C255 N256 1.540 . A
C255 H257 1.140 . S
N258 N259 1.540 1_565 A
N258 N262 1.540 . A
N259 C260 1.540 . A
C260 C261 1.540 . A
C261 N262 1.540 1_545 A
C261 H263 1.140 . S
N264 N265 1.543 1_556 A
N264 N268 1.540 . A
N265 C266 1.540 1_565 A
C266 C267 1.540 1_554 A
C267 N268 1.540 1_545 A
C267 H269 1.140 . S
N270 N271 1.540 . A
N270 N274 1.540 . A
N271 C272 1.540 . A
C272 C273 1.540 . A
C273 N274 1.540 . A
C273 H275 1.140 . S
N276 N277 1.540 . A
N276 N280 1.540 . A
N277 C278 1.540 . A
C278 C279 1.540 . A
C279 N280 1.540 . A
C279 H281 1.140 . S
N282 N283 1.540 . A
N282 N286 1.540 . A
N283 C284 1.540 . A
C284 C285 1.540 . A
C285 N286 1.540 . A
C285 H287 1.140 . S
N288 N289 1.540 . A
N288 N292 1.540 . A
N289 C290 1.540 . A
C290 C291 1.540 . A
C291 N292 1.540 . A
C291 H293 1.140 . S
N294 N295 1.540 1_554 A
N294 N298 1.540 1_554 A
N295 C296 1.540 . A
C296 C297 1.540 . A
C297 N298 1.540 . A
C297 H299 1.140 . S
N300 N301 1.540 . A
N300 N304 1.540 . A
N301 C302 1.540 . A
C302 C303 1.540 . A
C303 N304 1.540 . A
C303 H305 1.140 . S
N306 N307 1.540 . A
N306 N310 1.540 . A
N307 C308 1.540 . A
C308 C309 1.540 . A
C309 N310 1.540 . A
C309 H311 1.140 . S
N312 N313 1.540 . A
N312 N316 1.540 . A
N313 C314 1.540 1_556 A
C314 C315 1.540 1_554 A
C315 N316 1.540 . A
C315 H317 1.140 . S
N318 N319 1.540 . A
N318 N322 1.540 . A
N319 C320 1.540 . A
C320 C321 1.540 . A
C321 N322 1.540 . A
C321 H323 1.140 . S
N324 N325 1.540 1_554 A
N324 N328 1.540 . A
N325 C326 1.540 . A
C326 C327 1.540 1_556 A
C327 N328 1.540 . A
C327 H329 1.140 . S
N330 N331 1.540 . A
N330 N334 1.540 . A
N331 C332 1.540 . A
C332 C333 1.540 . A
C333 N334 1.540 . A
C333 H335 1.140 . S
N336 N337 1.540 . A
N336 N340 1.540 . A
N337 C338 1.540 . A
C338 C339 1.540 . A
C339 N340 1.540 . A
C339 H341 1.140 . S
N342 N343 1.540 . A
N342 N346 1.540 . A
N343 C344 1.540 . A
C344 C345 1.540 . A
C345 N346 1.540 . A
C345 H347 1.140 . S
N348 N349 1.540 . A
N348 N352 1.540 . A
N349 C350 1.540 . A
C350 C351 1.540 . A
C351 N352 1.540 . A
C351 H353 1.140 . S
N354 N355 1.540 . A
N354 N358 1.540 . A
N355 C356 1.540 . A
C356 C357 1.540 . A
C357 N358 1.540 . A
C357 H359 1.140 . S
N360 N361 1.540 . A
N360 N364 1.540 . A
N361 C362 1.540 . A
C362 C363 1.540 . A
C363 N364 1.540 . A
C363 H365 1.140 . S
N366 N367 1.540 . A
N366 N370 1.540 . A
N367 C368 1.540 . A
C368 C369 1.540 . A
C369 N370 1.540 . A
C369 H371 1.140 . S
N372 N373 1.540 . A
N372 N376 1.540 . A
N373 C374 1.540 . A
C374 C375 1.540 . A
C375 N376 1.540 . A
C375 H377 1.140 . S
N378 N379 1.540 . A
N378 N382 1.540 . A
N379 C380 1.540 . A
C380 C381 1.540 . A
C381 N382 1.540 . A
C381 H383 1.140 . S
C206 C14 1.425 . S
N208 C99 1.422 . S
C212 C31 1.438 . S
N214 C48 1.438 . S
C218 C150 1.431 . S
N220 C65 1.427 . S
C224 C82 1.432 . S
N226 C201 1.427 . S
C230 C184 1.421 . S
N232 C116 1.421 . S
C236 C167 1.437 . S
N238 C133 1.435 . S
C242 C120 1.724 . S
N244 C1 1.796 . S
C248 C18 1.745 . S
N250 C103 1.699 . S
C254 C35 1.696 . S
N256 C171 1.753 . S
C260 C188 1.822 . S
N262 C52 1.813 . S
C266 C69 1.826 . S
N268 C137 1.803 . S
C272 C86 1.755 . S
N274 C154 1.820 . S
C278 C117 1.693 . S
N280 C15 1.636 . S
C284 C83 1.675 . S
N286 C32 1.625 . S
C290 C49 1.635 . S
N292 C168 1.693 . S
C296 C66 1.660 . S
N298 C185 1.705 1_556 S
C302 C100 1.623 . S
N304 C151 1.664 . S
C308 C202 1.644 . S
N310 C134 1.627 1_554 S
C314 C4 1.392 . S
N316 C0 1.287 . S
C320 C17 1.430 1_554 S
N322 C21 1.280 . S
C326 C38 1.332 . S
N328 C34 1.357 . S
C332 C55 1.353 . S
N334 C51 1.364 . S
C338 C68 1.295 . S
N340 C72 1.384 . S
C344 C85 1.264 1_556 S
N346 C89 1.418 . S
C350 C106 1.364 . S
N352 C102 1.351 . S
C356 C123 1.280 . S
N358 C119 1.431 . S
C362 C140 1.360 . S
N364 C136 1.322 . S
C368 C153 1.347 . S
N370 C157 1.340 . S
C374 C174 1.418 . S
N376 C170 1.267 . S
C380 C191 1.291 . S
N382 C187 1.426 . S
