# Generated by pormake.
# Topology yfn, (5)-cn, num edge types: 1
# Building blocks:
#     Node 0, Type 0, BuildingBlock: N651, # of connection points: 5
#     Node 1, Type 0, BuildingBlock: N651, # of connection points: 5
#     Node 2, Type 0, BuildingBlock: N651, # of connection points: 5
#     Node 3, Type 0, BuildingBlock: N651, # of connection points: 5
#     Node 4, Type 0, BuildingBlock: N651, # of connection points: 5
#     Node 5, Type 0, BuildingBlock: N651, # of connection points: 5
#     Node 6, Type 0, BuildingBlock: N651, # of connection points: 5
#     Node 7, Type 0, BuildingBlock: N651, # of connection points: 5
#     Node 8, Type 0, BuildingBlock: N651, # of connection points: 5
#     Node 9, Type 0, BuildingBlock: N651, # of connection points: 5
#     Node 10, Type 0, BuildingBlock: N651, # of connection points: 5
#     Node 11, Type 0, BuildingBlock: N651, # of connection points: 5
#     Node 12, Type 0, BuildingBlock: N651, # of connection points: 5
#     Node 13, Type 0, BuildingBlock: N651, # of connection points: 5
#     Node 14, Type 0, BuildingBlock: N651, # of connection points: 5
#     Node 15, Type 0, BuildingBlock: N651, # of connection points: 5
#     Node 16, Type 0, BuildingBlock: N651, # of connection points: 5
#     Node 17, Type 0, BuildingBlock: N651, # of connection points: 5
#     Node 18, Type 0, BuildingBlock: N651, # of connection points: 5
#     Node 19, Type 0, BuildingBlock: N651, # of connection points: 5
#     Node 20, Type 0, BuildingBlock: N651, # of connection points: 5
#     Node 21, Type 0, BuildingBlock: N651, # of connection points: 5
#     Node 22, Type 0, BuildingBlock: N651, # of connection points: 5
#     Node 23, Type 0, BuildingBlock: N651, # of connection points: 5
#     Node 24, Type 0, BuildingBlock: N651, # of connection points: 5
#     Node 25, Type 0, BuildingBlock: N651, # of connection points: 5
#     Node 26, Type 0, BuildingBlock: N651, # of connection points: 5
#     Node 27, Type 0, BuildingBlock: N651, # of connection points: 5
#     Node 28, Type 0, BuildingBlock: N651, # of connection points: 5
#     Node 29, Type 0, BuildingBlock: N651, # of connection points: 5
#     Node 30, Type 0, BuildingBlock: N651, # of connection points: 5
#     Node 31, Type 0, BuildingBlock: N651, # of connection points: 5
#     Edge 32, Type (0, 0), None
#     Edge 33, Type (0, 0), None
#     Edge 34, Type (0, 0), None
#     Edge 35, Type (0, 0), None
#     Edge 36, Type (0, 0), None
#     Edge 37, Type (0, 0), None
#     Edge 38, Type (0, 0), None
#     Edge 39, Type (0, 0), None
#     Edge 40, Type (0, 0), None
#     Edge 41, Type (0, 0), None
#     Edge 42, Type (0, 0), None
#     Edge 43, Type (0, 0), None
#     Edge 44, Type (0, 0), None
#     Edge 45, Type (0, 0), None
#     Edge 46, Type (0, 0), None
#     Edge 47, Type (0, 0), None
#     Edge 48, Type (0, 0), None
#     Edge 49, Type (0, 0), None
#     Edge 50, Type (0, 0), None
#     Edge 51, Type (0, 0), None
#     Edge 52, Type (0, 0), None
#     Edge 53, Type (0, 0), None
#     Edge 54, Type (0, 0), None
#     Edge 55, Type (0, 0), None
#     Edge 56, Type (0, 0), None
#     Edge 57, Type (0, 0), None
#     Edge 58, Type (0, 0), None
#     Edge 59, Type (0, 0), None
#     Edge 60, Type (0, 0), None
#     Edge 61, Type (0, 0), None
#     Edge 62, Type (0, 0), None
#     Edge 63, Type (0, 0), None
#     Edge 64, Type (0, 0), None
#     Edge 65, Type (0, 0), None
#     Edge 66, Type (0, 0), None
#     Edge 67, Type (0, 0), None
#     Edge 68, Type (0, 0), None
#     Edge 69, Type (0, 0), None
#     Edge 70, Type (0, 0), None
#     Edge 71, Type (0, 0), None
#     Edge 72, Type (0, 0), None
#     Edge 73, Type (0, 0), None
#     Edge 74, Type (0, 0), None
#     Edge 75, Type (0, 0), None
#     Edge 76, Type (0, 0), None
#     Edge 77, Type (0, 0), None
#     Edge 78, Type (0, 0), None
#     Edge 79, Type (0, 0), None
#     Edge 80, Type (0, 0), None
#     Edge 81, Type (0, 0), None
#     Edge 82, Type (0, 0), None
#     Edge 83, Type (0, 0), None
#     Edge 84, Type (0, 0), None
#     Edge 85, Type (0, 0), None
#     Edge 86, Type (0, 0), None
#     Edge 87, Type (0, 0), None
#     Edge 88, Type (0, 0), None
#     Edge 89, Type (0, 0), None
#     Edge 90, Type (0, 0), None
#     Edge 91, Type (0, 0), None
#     Edge 92, Type (0, 0), None
#     Edge 93, Type (0, 0), None
#     Edge 94, Type (0, 0), None
#     Edge 95, Type (0, 0), None
#     Edge 96, Type (0, 0), None
#     Edge 97, Type (0, 0), None
#     Edge 98, Type (0, 0), None
#     Edge 99, Type (0, 0), None
#     Edge 100, Type (0, 0), None
#     Edge 101, Type (0, 0), None
#     Edge 102, Type (0, 0), None
#     Edge 103, Type (0, 0), None
#     Edge 104, Type (0, 0), None
#     Edge 105, Type (0, 0), None
#     Edge 106, Type (0, 0), None
#     Edge 107, Type (0, 0), None
#     Edge 108, Type (0, 0), None
#     Edge 109, Type (0, 0), None
#     Edge 110, Type (0, 0), None
#     Edge 111, Type (0, 0), None
# Relax obj value: 0.280
# Max RMSD: 0.262
# Mean RMSD: 0.262
data_yfn+N651+E0
_symmetry_space_group_name_H-M    P1
_symmetry_Int_Tables_number       1
_symmetry_cell_setting            triclinic
loop_
_symmetry_equiv_pos_as_xyz
'x, y, z'
_cell_length_a     41.765
_cell_length_b     41.780
_cell_length_c     13.837
_cell_angle_alpha  90.000
_cell_angle_beta   90.000
_cell_angle_gamma  90.000
loop_
_atom_site_label
_atom_site_type_symbol
_atom_site_fract_x
_atom_site_fract_y
_atom_site_fract_z
_atom_type_partial_charge
Zn0 Zn 0.52558 0.11713 0.41150 0.00000
Zn1 Zn 0.50221 0.04767 0.34518 0.00000
C2 C 0.48343 0.10645 0.24642 0.00000
Zn3 Zn 0.54964 0.05317 0.54274 0.00000
O4 O 0.47236 0.03718 0.44697 0.00000
O5 O 0.50772 0.02723 0.56021 0.00000
O6 O 0.55691 0.15200 0.41625 0.00000
O7 O 0.57875 0.12001 0.31399 0.00000
O8 O 0.49629 0.12533 0.30170 0.00000
O9 O 0.50809 0.00685 0.27768 0.00000
O10 O 0.54954 0.03316 0.23108 0.00000
O11 O 0.48021 0.07753 0.25606 0.00000
C12 C 0.48046 0.02621 0.52774 0.00000
O13 O 0.52890 0.09022 0.62033 0.00000
O14 O 0.50120 0.12291 0.52881 0.00000
O15 O 0.53724 0.07129 0.40949 0.00000
C16 C 0.57919 0.14374 0.36086 0.00000
C17 C 0.53401 0.00944 0.23265 0.00000
C18 C 0.50918 0.11159 0.60925 0.00000
Zn19 Zn 0.63282 0.77557 0.16142 0.00000
Zn20 Zn 0.70230 0.75220 0.09513 0.00000
C21 C 0.64350 0.73344 0.99635 0.00000
Zn22 Zn 0.69681 0.79962 0.29269 0.00000
O23 O 0.71279 0.72236 0.19692 0.00000
O24 O 0.72274 0.75770 0.31016 0.00000
O25 O 0.59794 0.80691 0.16617 0.00000
O26 O 0.62995 0.82873 0.06392 0.00000
O27 O 0.62461 0.74630 0.05162 0.00000
O28 O 0.74313 0.75807 0.02764 0.00000
O29 O 0.71683 0.79951 0.98103 0.00000
O30 O 0.67243 0.73021 0.00600 0.00000
C31 C 0.72376 0.73045 0.27769 0.00000
O32 O 0.65974 0.77889 0.37027 0.00000
O33 O 0.62703 0.75120 0.27874 0.00000
O34 O 0.67868 0.78722 0.15943 0.00000
C35 C 0.60622 0.82917 0.11079 0.00000
C36 C 0.74056 0.78398 0.98261 0.00000
C37 C 0.63835 0.75917 0.35918 0.00000
Zn38 Zn 0.97442 0.11713 0.58852 0.00000
Zn39 Zn 0.99779 0.04767 0.65483 0.00000
C40 C 0.01657 0.10645 0.75360 0.00000
Zn41 Zn 0.95036 0.05317 0.45727 0.00000
O42 O 0.02764 0.03718 0.55304 0.00000
O43 O 0.99228 0.02723 0.43981 0.00000
O44 O 0.94309 0.15200 0.58376 0.00000
O45 O 0.92125 0.12001 0.68602 0.00000
O46 O 0.00371 0.12533 0.69832 0.00000
O47 O 0.99191 0.00685 0.72233 0.00000
O48 O 0.95046 0.03316 0.76893 0.00000
O49 O 0.01979 0.07753 0.74395 0.00000
C50 C 0.01954 0.02621 0.47227 0.00000
O51 O 0.97110 0.09022 0.37968 0.00000
O52 O 0.99880 0.12291 0.47120 0.00000
O53 O 0.96276 0.07129 0.59052 0.00000
C54 C 0.92082 0.14374 0.63915 0.00000
C55 C 0.96599 0.00944 0.76736 0.00000
C56 C 0.99083 0.11159 0.39076 0.00000
Zn57 Zn 0.36718 0.22442 0.83858 0.00000
Zn58 Zn 0.29770 0.24780 0.90488 0.00000
C59 C 0.35650 0.26656 0.00365 0.00000
Zn60 Zn 0.30319 0.20038 0.70731 0.00000
O61 O 0.28721 0.27764 0.80308 0.00000
O62 O 0.27726 0.24230 0.68984 0.00000
O63 O 0.40206 0.19309 0.83383 0.00000
O64 O 0.37005 0.17127 0.93608 0.00000
O65 O 0.37539 0.25370 0.94838 0.00000
O66 O 0.25687 0.24193 0.97236 0.00000
O67 O 0.28317 0.20049 0.01897 0.00000
O68 O 0.32758 0.26978 0.99400 0.00000
C69 C 0.27624 0.26955 0.72231 0.00000
O70 O 0.34026 0.22110 0.62973 0.00000
O71 O 0.37297 0.24879 0.72126 0.00000
O72 O 0.32132 0.21277 0.84057 0.00000
C73 C 0.39378 0.17083 0.88921 0.00000
C74 C 0.25944 0.21601 0.01739 0.00000
C75 C 0.36165 0.24082 0.64082 0.00000
Zn76 Zn 0.02558 0.88287 0.41148 0.00000
Zn77 Zn 0.00221 0.95233 0.34516 0.00000
C78 C 0.98343 0.89355 0.24640 0.00000
Zn79 Zn 0.04964 0.94683 0.54273 0.00000
O80 O 0.97236 0.96282 0.44695 0.00000
O81 O 0.00772 0.97277 0.56019 0.00000
O82 O 0.05691 0.84800 0.41624 0.00000
O83 O 0.07875 0.87999 0.31398 0.00000
O84 O 0.99629 0.87467 0.30168 0.00000
O85 O 0.00810 0.99315 0.27767 0.00000
O86 O 0.04954 0.96684 0.23106 0.00000
O87 O 0.98021 0.92247 0.25605 0.00000
C88 C 0.98046 0.97379 0.52772 0.00000
O89 O 0.02890 0.90978 0.62032 0.00000
O90 O 0.00120 0.87709 0.52880 0.00000
O91 O 0.03724 0.92871 0.40947 0.00000
C92 C 0.07918 0.85626 0.36085 0.00000
C93 C 0.03402 0.99056 0.23264 0.00000
C94 C 0.00917 0.88841 0.60923 0.00000
Zn95 Zn 0.13283 0.77558 0.33860 0.00000
Zn96 Zn 0.20231 0.75221 0.40490 0.00000
C97 C 0.14351 0.73345 0.50368 0.00000
Zn98 Zn 0.19682 0.79963 0.20734 0.00000
O99 O 0.21280 0.72237 0.30311 0.00000
O100 O 0.22275 0.75771 0.18987 0.00000
O101 O 0.09795 0.80691 0.33385 0.00000
O102 O 0.12996 0.82874 0.43610 0.00000
O103 O 0.12462 0.74631 0.44840 0.00000
O104 O 0.24314 0.75808 0.47239 0.00000
O105 O 0.21683 0.79952 0.51900 0.00000
O106 O 0.17243 0.73023 0.49403 0.00000
C107 C 0.22377 0.73046 0.22234 0.00000
O108 O 0.15975 0.77890 0.12976 0.00000
O109 O 0.12704 0.75121 0.22129 0.00000
O110 O 0.17869 0.78723 0.34060 0.00000
C111 C 0.10623 0.82918 0.38924 0.00000
C112 C 0.24056 0.78399 0.51742 0.00000
C113 C 0.13836 0.75918 0.14085 0.00000
Zn114 Zn 0.47443 0.88287 0.58850 0.00000
Zn115 Zn 0.49780 0.95233 0.65482 0.00000
C116 C 0.51658 0.89355 0.75358 0.00000
Zn117 Zn 0.45036 0.94683 0.45725 0.00000
O118 O 0.52765 0.96282 0.55303 0.00000
O119 O 0.49229 0.97277 0.43979 0.00000
O120 O 0.44309 0.84800 0.58375 0.00000
O121 O 0.42126 0.87999 0.68601 0.00000
O122 O 0.50372 0.87467 0.69830 0.00000
O123 O 0.49192 0.99314 0.72231 0.00000
O124 O 0.45047 0.96684 0.76892 0.00000
O125 O 0.51979 0.92247 0.74393 0.00000
C126 C 0.51955 0.97379 0.47226 0.00000
O127 O 0.47110 0.90978 0.37966 0.00000
O128 O 0.49881 0.87709 0.47118 0.00000
O129 O 0.46277 0.92871 0.59051 0.00000
C130 C 0.42082 0.85626 0.63914 0.00000
C131 C 0.46600 0.99056 0.76735 0.00000
C132 C 0.49083 0.88841 0.39075 0.00000
Zn133 Zn 0.02558 0.11713 0.08852 0.00000
Zn134 Zn 0.00222 0.04767 0.15484 0.00000
C135 C 0.98344 0.10645 0.25360 0.00000
Zn136 Zn 0.04965 0.05317 0.95727 0.00000
O137 O 0.97237 0.03718 0.05305 0.00000
O138 O 0.00772 0.02723 0.93981 0.00000
O139 O 0.05692 0.15200 0.08376 0.00000
O140 O 0.07876 0.12001 0.18602 0.00000
O141 O 0.99630 0.12533 0.19832 0.00000
O142 O 0.00810 0.00685 0.22233 0.00000
O143 O 0.04954 0.03316 0.26893 0.00000
O144 O 0.98022 0.07753 0.24395 0.00000
C145 C 0.98046 0.02621 0.97228 0.00000
O146 O 0.02891 0.09022 0.87968 0.00000
O147 O 0.00120 0.12291 0.97120 0.00000
O148 O 0.03724 0.07129 0.09053 0.00000
C149 C 0.07919 0.14374 0.13915 0.00000
C150 C 0.03402 0.00944 0.26736 0.00000
C151 C 0.00918 0.11159 0.89076 0.00000
Zn152 Zn 0.36718 0.77559 0.66142 0.00000
Zn153 Zn 0.29769 0.75222 0.59512 0.00000
C154 C 0.35650 0.73346 0.49635 0.00000
Zn155 Zn 0.30319 0.79963 0.79269 0.00000
O156 O 0.28721 0.72237 0.69692 0.00000
O157 O 0.27726 0.75771 0.81016 0.00000
O158 O 0.40205 0.80692 0.66617 0.00000
O159 O 0.37004 0.82874 0.56392 0.00000
O160 O 0.37539 0.74632 0.55162 0.00000
O161 O 0.25687 0.75809 0.52764 0.00000
O162 O 0.28317 0.79952 0.48103 0.00000
O163 O 0.32757 0.73023 0.50600 0.00000
C164 C 0.27624 0.73046 0.77769 0.00000
O165 O 0.34026 0.77891 0.87027 0.00000
O166 O 0.37297 0.75122 0.77874 0.00000
O167 O 0.32132 0.78724 0.65943 0.00000
C168 C 0.39378 0.82919 0.61078 0.00000
C169 C 0.25944 0.78400 0.48261 0.00000
C170 C 0.36165 0.75919 0.85918 0.00000
Zn171 Zn 0.47443 0.11714 0.91150 0.00000
Zn172 Zn 0.49780 0.04767 0.84518 0.00000
C173 C 0.51658 0.10646 0.74642 0.00000
Zn174 Zn 0.45037 0.05317 0.04274 0.00000
O175 O 0.52765 0.03718 0.94697 0.00000
O176 O 0.49229 0.02723 0.06020 0.00000
O177 O 0.44310 0.15201 0.91625 0.00000
O178 O 0.42126 0.12002 0.81399 0.00000
O179 O 0.50372 0.12534 0.80170 0.00000
O180 O 0.49192 0.00686 0.77768 0.00000
O181 O 0.45047 0.03317 0.73108 0.00000
O182 O 0.51980 0.07754 0.75606 0.00000
C183 C 0.51955 0.02621 0.02774 0.00000
O184 O 0.47111 0.09022 0.12033 0.00000
O185 O 0.49881 0.12291 0.02881 0.00000
O186 O 0.46277 0.07129 0.90949 0.00000
C187 C 0.42083 0.14374 0.86086 0.00000
C188 C 0.46600 0.00944 0.73265 0.00000
C189 C 0.49083 0.11159 0.10925 0.00000
Zn190 Zn 0.02558 0.38287 0.58852 0.00000
Zn191 Zn 0.00222 0.45233 0.65483 0.00000
C192 C 0.98343 0.39355 0.75360 0.00000
Zn193 Zn 0.04964 0.44683 0.45727 0.00000
O194 O 0.97236 0.46282 0.55305 0.00000
O195 O 0.00772 0.47277 0.43981 0.00000
O196 O 0.05691 0.34799 0.58376 0.00000
O197 O 0.07875 0.37998 0.68602 0.00000
O198 O 0.99629 0.37467 0.69832 0.00000
O199 O 0.00810 0.49314 0.72233 0.00000
O200 O 0.04954 0.46683 0.76893 0.00000
O201 O 0.98022 0.42247 0.74395 0.00000
C202 C 0.98046 0.47379 0.47227 0.00000
O203 O 0.02890 0.40978 0.37968 0.00000
O204 O 0.00120 0.37709 0.47120 0.00000
O205 O 0.03724 0.42871 0.59052 0.00000
C206 C 0.07918 0.35626 0.63915 0.00000
C207 C 0.03402 0.49056 0.76736 0.00000
C208 C 0.00917 0.38841 0.39076 0.00000
Zn209 Zn 0.36718 0.27558 0.33857 0.00000
Zn210 Zn 0.29769 0.25221 0.40487 0.00000
C211 C 0.35650 0.23345 0.50365 0.00000
Zn212 Zn 0.30319 0.29962 0.20731 0.00000
O213 O 0.28721 0.22236 0.30308 0.00000
O214 O 0.27726 0.25771 0.18984 0.00000
O215 O 0.40205 0.30692 0.33383 0.00000
O216 O 0.37004 0.32874 0.43608 0.00000
O217 O 0.37539 0.24631 0.44837 0.00000
O218 O 0.25686 0.25808 0.47236 0.00000
O219 O 0.28317 0.29951 0.51897 0.00000
O220 O 0.32757 0.23022 0.49399 0.00000
C221 C 0.27624 0.23045 0.22230 0.00000
O222 O 0.34026 0.27890 0.12972 0.00000
O223 O 0.37297 0.25121 0.22125 0.00000
O224 O 0.32132 0.28723 0.34057 0.00000
C225 C 0.39378 0.32918 0.38921 0.00000
C226 C 0.25944 0.28399 0.51739 0.00000
C227 C 0.36165 0.25918 0.14081 0.00000
Zn228 Zn 0.13283 0.22442 0.16140 0.00000
Zn229 Zn 0.20231 0.24779 0.09510 0.00000
C230 C 0.14351 0.26655 0.99632 0.00000
Zn231 Zn 0.19682 0.20038 0.29267 0.00000
O232 O 0.21280 0.27764 0.19689 0.00000
O233 O 0.22275 0.24230 0.31013 0.00000
O234 O 0.09796 0.19309 0.16615 0.00000
O235 O 0.12997 0.17127 0.06390 0.00000
O236 O 0.12462 0.25369 0.05160 0.00000
O237 O 0.24314 0.24193 0.02761 0.00000
O238 O 0.21684 0.20049 0.98101 0.00000
O239 O 0.17243 0.26978 0.00598 0.00000
C240 C 0.22377 0.26955 0.27767 0.00000
O241 O 0.15975 0.22110 0.37025 0.00000
O242 O 0.12704 0.24879 0.27872 0.00000
O243 O 0.17869 0.21277 0.15941 0.00000
C244 C 0.10623 0.17082 0.11077 0.00000
C245 C 0.24057 0.21601 0.98258 0.00000
C246 C 0.13836 0.24082 0.35916 0.00000
Zn247 Zn 0.97442 0.88287 0.91148 0.00000
Zn248 Zn 0.99778 0.95233 0.84517 0.00000
C249 C 0.01656 0.89355 0.74640 0.00000
Zn250 Zn 0.95035 0.94683 0.04273 0.00000
O251 O 0.02763 0.96282 0.94696 0.00000
O252 O 0.99228 0.97277 0.06020 0.00000
O253 O 0.94308 0.84800 0.91624 0.00000
O254 O 0.92124 0.87999 0.81398 0.00000
O255 O 0.00370 0.87467 0.80168 0.00000
O256 O 0.99190 0.99315 0.77767 0.00000
O257 O 0.95046 0.96684 0.73107 0.00000
O258 O 0.01978 0.92247 0.75605 0.00000
C259 C 0.01954 0.97379 0.02773 0.00000
O260 O 0.97109 0.90978 0.12032 0.00000
O261 O 0.99880 0.87709 0.02880 0.00000
O262 O 0.96275 0.92871 0.90948 0.00000
C263 C 0.92081 0.85626 0.86085 0.00000
C264 C 0.96598 0.99056 0.73264 0.00000
C265 C 0.99082 0.88841 0.10924 0.00000
Zn266 Zn 0.86717 0.22442 0.66140 0.00000
Zn267 Zn 0.79769 0.24779 0.59510 0.00000
C268 C 0.85649 0.26655 0.49633 0.00000
Zn269 Zn 0.80318 0.20037 0.79266 0.00000
O270 O 0.78720 0.27763 0.69689 0.00000
O271 O 0.77725 0.24229 0.81013 0.00000
O272 O 0.90205 0.19309 0.66615 0.00000
O273 O 0.87004 0.17126 0.56390 0.00000
O274 O 0.87538 0.25369 0.55160 0.00000
O275 O 0.75686 0.24192 0.52761 0.00000
O276 O 0.78316 0.20048 0.48100 0.00000
O277 O 0.82757 0.26978 0.50598 0.00000
C278 C 0.77623 0.26954 0.77767 0.00000
O279 O 0.84025 0.22110 0.87025 0.00000
O280 O 0.87296 0.24879 0.77872 0.00000
O281 O 0.82131 0.21277 0.65940 0.00000
C282 C 0.89377 0.17082 0.61077 0.00000
C283 C 0.75943 0.21601 0.48258 0.00000
C284 C 0.86164 0.24082 0.85916 0.00000
Zn285 Zn 0.63282 0.22441 0.33858 0.00000
Zn286 Zn 0.70231 0.24779 0.40487 0.00000
C287 C 0.64350 0.26655 0.50365 0.00000
Zn288 Zn 0.69681 0.20037 0.20731 0.00000
O289 O 0.71279 0.27763 0.30308 0.00000
O290 O 0.72275 0.24229 0.18984 0.00000
O291 O 0.59795 0.19308 0.33383 0.00000
O292 O 0.62996 0.17126 0.43608 0.00000
O293 O 0.62462 0.25369 0.44838 0.00000
O294 O 0.74314 0.24192 0.47236 0.00000
O295 O 0.71683 0.20048 0.51897 0.00000
O296 O 0.67243 0.26977 0.49400 0.00000
C297 C 0.72376 0.26954 0.22231 0.00000
O298 O 0.65974 0.22109 0.12973 0.00000
O299 O 0.62704 0.24878 0.22126 0.00000
O300 O 0.67868 0.21277 0.34057 0.00000
C301 C 0.60622 0.17082 0.38921 0.00000
C302 C 0.74056 0.21601 0.51739 0.00000
C303 C 0.63836 0.24081 0.14082 0.00000
Zn304 Zn 0.52558 0.88287 0.08851 0.00000
Zn305 Zn 0.50221 0.95233 0.15482 0.00000
C306 C 0.48343 0.89355 0.25359 0.00000
Zn307 Zn 0.54964 0.94683 0.95726 0.00000
O308 O 0.47236 0.96282 0.05303 0.00000
O309 O 0.50772 0.97277 0.93980 0.00000
O310 O 0.55691 0.84799 0.08375 0.00000
O311 O 0.57875 0.87998 0.18601 0.00000
O312 O 0.49629 0.87467 0.19831 0.00000
O313 O 0.50809 0.99314 0.22232 0.00000
O314 O 0.54954 0.96683 0.26893 0.00000
O315 O 0.48021 0.92247 0.24394 0.00000
C316 C 0.48046 0.97379 0.97226 0.00000
O317 O 0.52890 0.90978 0.87967 0.00000
O318 O 0.50120 0.87709 0.97119 0.00000
O319 O 0.53724 0.92871 0.09052 0.00000
C320 C 0.57918 0.85626 0.13914 0.00000
C321 C 0.53401 0.99056 0.26735 0.00000
C322 C 0.50917 0.88841 0.89075 0.00000
Zn323 Zn 0.86717 0.77558 0.83859 0.00000
Zn324 Zn 0.79769 0.75220 0.90489 0.00000
C325 C 0.85649 0.73344 0.00367 0.00000
Zn326 Zn 0.80318 0.79962 0.70733 0.00000
O327 O 0.78720 0.72236 0.80310 0.00000
O328 O 0.77725 0.75770 0.68986 0.00000
O329 O 0.90204 0.80691 0.83385 0.00000
O330 O 0.87004 0.82873 0.93610 0.00000
O331 O 0.87538 0.74630 0.94840 0.00000
O332 O 0.75686 0.75807 0.97238 0.00000
O333 O 0.78316 0.79951 0.01899 0.00000
O334 O 0.82757 0.73022 0.99402 0.00000
C335 C 0.77623 0.73045 0.72233 0.00000
O336 O 0.84025 0.77890 0.62975 0.00000
O337 O 0.87296 0.75121 0.72128 0.00000
O338 O 0.82131 0.78722 0.84059 0.00000
C339 C 0.89377 0.82917 0.88923 0.00000
C340 C 0.75943 0.78398 0.01741 0.00000
C341 C 0.86164 0.75918 0.64084 0.00000
Zn342 Zn 0.52558 0.61713 0.58850 0.00000
Zn343 Zn 0.50221 0.54767 0.65482 0.00000
C344 C 0.48343 0.60645 0.75358 0.00000
Zn345 Zn 0.54964 0.55317 0.45726 0.00000
O346 O 0.47236 0.53718 0.55303 0.00000
O347 O 0.50771 0.52723 0.43979 0.00000
O348 O 0.55691 0.65200 0.58375 0.00000
O349 O 0.57875 0.62001 0.68601 0.00000
O350 O 0.49629 0.62533 0.69830 0.00000
O351 O 0.50809 0.50685 0.72232 0.00000
O352 O 0.54954 0.53316 0.76892 0.00000
O353 O 0.48021 0.57753 0.74394 0.00000
C354 C 0.48045 0.52621 0.47226 0.00000
O355 O 0.52890 0.59022 0.37966 0.00000
O356 O 0.50120 0.62291 0.47119 0.00000
O357 O 0.53724 0.57129 0.59051 0.00000
C358 C 0.57918 0.64374 0.63914 0.00000
C359 C 0.53401 0.50944 0.76735 0.00000
C360 C 0.50917 0.61159 0.39075 0.00000
Zn361 Zn 0.63282 0.27557 0.83857 0.00000
Zn362 Zn 0.70230 0.25220 0.90487 0.00000
C363 C 0.64350 0.23343 0.00365 0.00000
Zn364 Zn 0.69681 0.29961 0.70731 0.00000
O365 O 0.71279 0.22235 0.80308 0.00000
O366 O 0.72274 0.25769 0.68984 0.00000
O367 O 0.59794 0.30690 0.83383 0.00000
O368 O 0.62995 0.32872 0.93608 0.00000
O369 O 0.62461 0.24629 0.94837 0.00000
O370 O 0.74313 0.25806 0.97236 0.00000
O371 O 0.71683 0.29950 0.01897 0.00000
O372 O 0.67242 0.23021 0.99399 0.00000
C373 C 0.72376 0.23044 0.72230 0.00000
O374 O 0.65974 0.27889 0.62973 0.00000
O375 O 0.62703 0.25120 0.72126 0.00000
O376 O 0.67868 0.28722 0.84057 0.00000
C377 C 0.60622 0.32916 0.88921 0.00000
C378 C 0.74056 0.28398 0.01739 0.00000
C379 C 0.63835 0.25917 0.64082 0.00000
Zn380 Zn 0.97441 0.38287 0.08852 0.00000
Zn381 Zn 0.99777 0.45233 0.15483 0.00000
C382 C 0.01655 0.39355 0.25360 0.00000
Zn383 Zn 0.95034 0.44683 0.95727 0.00000
O384 O 0.02763 0.46282 0.05304 0.00000
O385 O 0.99227 0.47277 0.93981 0.00000
O386 O 0.94307 0.34800 0.08376 0.00000
O387 O 0.92124 0.37999 0.18602 0.00000
O388 O 0.00370 0.37467 0.19832 0.00000
O389 O 0.99189 0.49315 0.22233 0.00000
O390 O 0.95045 0.46684 0.26893 0.00000
O391 O 0.01977 0.42247 0.24395 0.00000
C392 C 0.01953 0.47379 0.97227 0.00000
O393 O 0.97109 0.40978 0.87968 0.00000
O394 O 0.99879 0.37709 0.97120 0.00000
O395 O 0.96275 0.42871 0.09052 0.00000
C396 C 0.92080 0.35626 0.13915 0.00000
C397 C 0.96597 0.49056 0.26736 0.00000
C398 C 0.99081 0.38841 0.89076 0.00000
Zn399 Zn 0.86717 0.72442 0.33859 0.00000
Zn400 Zn 0.79769 0.74780 0.40489 0.00000
C401 C 0.85649 0.76656 0.50367 0.00000
Zn402 Zn 0.80318 0.70038 0.20733 0.00000
O403 O 0.78720 0.77764 0.30310 0.00000
O404 O 0.77725 0.74230 0.18986 0.00000
O405 O 0.90205 0.69309 0.33384 0.00000
O406 O 0.87004 0.67127 0.43610 0.00000
O407 O 0.87538 0.75370 0.44839 0.00000
O408 O 0.75686 0.74193 0.47238 0.00000
O409 O 0.78317 0.70049 0.51899 0.00000
O410 O 0.82757 0.76978 0.49401 0.00000
C411 C 0.77623 0.76955 0.22233 0.00000
O412 O 0.84025 0.72111 0.12975 0.00000
O413 O 0.87296 0.74879 0.22127 0.00000
O414 O 0.82131 0.71278 0.34059 0.00000
C415 C 0.89377 0.67083 0.38923 0.00000
C416 C 0.75944 0.71601 0.51741 0.00000
C417 C 0.86164 0.74082 0.14083 0.00000
Zn418 Zn 0.52557 0.38286 0.91149 0.00000
Zn419 Zn 0.50221 0.45233 0.84518 0.00000
C420 C 0.48343 0.39355 0.74642 0.00000
Zn421 Zn 0.54964 0.44683 0.04274 0.00000
O422 O 0.47236 0.46282 0.94697 0.00000
O423 O 0.50772 0.47277 0.06020 0.00000
O424 O 0.55691 0.34799 0.91625 0.00000
O425 O 0.57874 0.37998 0.81399 0.00000
O426 O 0.49629 0.37467 0.80169 0.00000
O427 O 0.50809 0.49314 0.77768 0.00000
O428 O 0.54954 0.46683 0.73107 0.00000
O429 O 0.48021 0.42246 0.75606 0.00000
C430 C 0.48046 0.47379 0.02774 0.00000
O431 O 0.52890 0.40978 0.12033 0.00000
O432 O 0.50119 0.37709 0.02881 0.00000
O433 O 0.53724 0.42871 0.90948 0.00000
C434 C 0.57918 0.35626 0.86086 0.00000
C435 C 0.53401 0.49056 0.73265 0.00000
C436 C 0.50917 0.38841 0.10925 0.00000
Zn437 Zn 0.86717 0.27557 0.16141 0.00000
Zn438 Zn 0.79769 0.25220 0.09511 0.00000
C439 C 0.85650 0.23344 0.99634 0.00000
Zn440 Zn 0.80318 0.29961 0.29268 0.00000
O441 O 0.78721 0.22235 0.19691 0.00000
O442 O 0.77725 0.25769 0.31014 0.00000
O443 O 0.90205 0.30691 0.16616 0.00000
O444 O 0.87004 0.32873 0.06391 0.00000
O445 O 0.87538 0.24630 0.05161 0.00000
O446 O 0.75686 0.25807 0.02762 0.00000
O447 O 0.78316 0.29950 0.98102 0.00000
O448 O 0.82757 0.23021 0.00599 0.00000
C449 C 0.77624 0.23044 0.27768 0.00000
O450 O 0.84025 0.27889 0.37026 0.00000
O451 O 0.87296 0.25120 0.27873 0.00000
O452 O 0.82131 0.28722 0.15942 0.00000
C453 C 0.89377 0.32917 0.11078 0.00000
C454 C 0.75944 0.28398 0.98259 0.00000
C455 C 0.86164 0.25917 0.35917 0.00000
Zn456 Zn 0.97442 0.61713 0.41148 0.00000
Zn457 Zn 0.99778 0.54767 0.34517 0.00000
C458 C 0.01656 0.60645 0.24640 0.00000
Zn459 Zn 0.95035 0.55317 0.54273 0.00000
O460 O 0.02763 0.53718 0.44695 0.00000
O461 O 0.99228 0.52723 0.56019 0.00000
O462 O 0.94308 0.65201 0.41624 0.00000
O463 O 0.92125 0.62002 0.31398 0.00000
O464 O 0.00370 0.62533 0.30168 0.00000
O465 O 0.99190 0.50686 0.27767 0.00000
O466 O 0.95045 0.53317 0.23107 0.00000
O467 O 0.01978 0.57753 0.25605 0.00000
C468 C 0.01954 0.52621 0.52773 0.00000
O469 O 0.97109 0.59022 0.62032 0.00000
O470 O 0.99880 0.62291 0.52880 0.00000
O471 O 0.96275 0.57129 0.40948 0.00000
C472 C 0.92081 0.64374 0.36085 0.00000
C473 C 0.96598 0.50944 0.23264 0.00000
C474 C 0.99082 0.61159 0.60924 0.00000
Zn475 Zn 0.63282 0.72442 0.66143 0.00000
Zn476 Zn 0.70231 0.74779 0.59513 0.00000
C477 C 0.64350 0.76655 0.49635 0.00000
Zn478 Zn 0.69681 0.70037 0.79269 0.00000
O479 O 0.71279 0.77763 0.69692 0.00000
O480 O 0.72274 0.74229 0.81016 0.00000
O481 O 0.59795 0.69308 0.66617 0.00000
O482 O 0.62996 0.67126 0.56392 0.00000
O483 O 0.62461 0.75369 0.55163 0.00000
O484 O 0.74314 0.74192 0.52764 0.00000
O485 O 0.71683 0.70049 0.48103 0.00000
O486 O 0.67243 0.76978 0.50601 0.00000
C487 C 0.72376 0.76955 0.77770 0.00000
O488 O 0.65974 0.72110 0.87027 0.00000
O489 O 0.62704 0.74879 0.77874 0.00000
O490 O 0.67868 0.71277 0.65943 0.00000
C491 C 0.60622 0.67082 0.61079 0.00000
C492 C 0.74056 0.71601 0.48261 0.00000
C493 C 0.63836 0.74082 0.85918 0.00000
Zn494 Zn 0.47442 0.38287 0.41150 0.00000
Zn495 Zn 0.49779 0.45233 0.34518 0.00000
C496 C 0.51657 0.39355 0.24642 0.00000
Zn497 Zn 0.45035 0.44683 0.54275 0.00000
O498 O 0.52764 0.46282 0.44697 0.00000
O499 O 0.49228 0.47277 0.56021 0.00000
O500 O 0.44309 0.34800 0.41625 0.00000
O501 O 0.42125 0.37999 0.31399 0.00000
O502 O 0.50371 0.37467 0.30170 0.00000
O503 O 0.49191 0.49315 0.27768 0.00000
O504 O 0.45046 0.46684 0.23108 0.00000
O505 O 0.51979 0.42247 0.25607 0.00000
C506 C 0.51954 0.47379 0.52774 0.00000
O507 O 0.47110 0.40978 0.62034 0.00000
O508 O 0.49880 0.37709 0.52882 0.00000
O509 O 0.46276 0.42871 0.40949 0.00000
C510 C 0.42081 0.35626 0.36087 0.00000
C511 C 0.46599 0.49056 0.23265 0.00000
C512 C 0.49082 0.38841 0.60925 0.00000
Zn513 Zn 0.36718 0.72443 0.16143 0.00000
Zn514 Zn 0.29770 0.74780 0.09513 0.00000
C515 C 0.35650 0.76657 0.99635 0.00000
Zn516 Zn 0.30319 0.70039 0.29269 0.00000
O517 O 0.28721 0.77765 0.19693 0.00000
O518 O 0.27726 0.74231 0.31016 0.00000
O519 O 0.40206 0.69310 0.16618 0.00000
O520 O 0.37005 0.67128 0.06393 0.00000
O521 O 0.37539 0.75371 0.05163 0.00000
O522 O 0.25687 0.74193 0.02764 0.00000
O523 O 0.28317 0.70050 0.98104 0.00000
O524 O 0.32758 0.76979 0.00601 0.00000
C525 C 0.27624 0.76956 0.27770 0.00000
O526 O 0.34026 0.72111 0.37028 0.00000
O527 O 0.37297 0.74880 0.27875 0.00000
O528 O 0.32132 0.71278 0.15943 0.00000
C529 C 0.39378 0.67084 0.11079 0.00000
C530 C 0.25944 0.71602 0.98261 0.00000
C531 C 0.36165 0.74083 0.35919 0.00000
Zn532 Zn 0.02558 0.61713 0.91148 0.00000
Zn533 Zn 0.00222 0.54767 0.84517 0.00000
C534 C 0.98344 0.60645 0.74640 0.00000
Zn535 Zn 0.04965 0.55317 0.04273 0.00000
O536 O 0.97237 0.53718 0.94696 0.00000
O537 O 0.00772 0.52723 0.06019 0.00000
O538 O 0.05692 0.65200 0.91624 0.00000
O539 O 0.07876 0.62001 0.81398 0.00000
O540 O 0.99630 0.62533 0.80168 0.00000
O541 O 0.00810 0.50686 0.77767 0.00000
O542 O 0.04955 0.53316 0.73107 0.00000
O543 O 0.98022 0.57753 0.75605 0.00000
C544 C 0.98046 0.52621 0.02773 0.00000
O545 O 0.02891 0.59022 0.12032 0.00000
O546 O 0.00120 0.62291 0.02880 0.00000
O547 O 0.03725 0.57129 0.90948 0.00000
C548 C 0.07919 0.64374 0.86085 0.00000
C549 C 0.03402 0.50944 0.73264 0.00000
C550 C 0.00918 0.61159 0.10924 0.00000
Zn551 Zn 0.13283 0.27558 0.66141 0.00000
Zn552 Zn 0.20231 0.25221 0.59511 0.00000
C553 C 0.14350 0.23344 0.49633 0.00000
Zn554 Zn 0.19681 0.29962 0.79267 0.00000
O555 O 0.21280 0.22236 0.69690 0.00000
O556 O 0.22275 0.25770 0.81014 0.00000
O557 O 0.09795 0.30691 0.66616 0.00000
O558 O 0.12996 0.32873 0.56391 0.00000
O559 O 0.12462 0.24630 0.55161 0.00000
O560 O 0.24314 0.25808 0.52762 0.00000
O561 O 0.21683 0.29951 0.48102 0.00000
O562 O 0.17243 0.23022 0.50599 0.00000
C563 C 0.22377 0.23045 0.77768 0.00000
O564 O 0.15975 0.27890 0.87026 0.00000
O565 O 0.12704 0.25121 0.77873 0.00000
O566 O 0.17869 0.28723 0.65942 0.00000
C567 C 0.10623 0.32917 0.61078 0.00000
C568 C 0.24056 0.28399 0.48259 0.00000
C569 C 0.13836 0.25918 0.85917 0.00000
Zn570 Zn 0.47442 0.61714 0.08850 0.00000
Zn571 Zn 0.49779 0.54767 0.15482 0.00000
C572 C 0.51657 0.60645 0.25358 0.00000
Zn573 Zn 0.45036 0.55317 0.95726 0.00000
O574 O 0.52764 0.53718 0.05303 0.00000
O575 O 0.49228 0.52723 0.93980 0.00000
O576 O 0.44309 0.65201 0.08375 0.00000
O577 O 0.42125 0.62002 0.18601 0.00000
O578 O 0.50371 0.62533 0.19830 0.00000
O579 O 0.49190 0.50686 0.22232 0.00000
O580 O 0.45046 0.53317 0.26892 0.00000
O581 O 0.51979 0.57754 0.24394 0.00000
C582 C 0.51954 0.52621 0.97226 0.00000
O583 O 0.47110 0.59022 0.87967 0.00000
O584 O 0.49880 0.62291 0.97119 0.00000
O585 O 0.46276 0.57129 0.09051 0.00000
C586 C 0.42082 0.64374 0.13914 0.00000
C587 C 0.46599 0.50944 0.26735 0.00000
C588 C 0.49083 0.61159 0.89075 0.00000
Zn589 Zn 0.13283 0.72442 0.83858 0.00000
Zn590 Zn 0.20231 0.74780 0.90488 0.00000
C591 C 0.14351 0.76656 0.00366 0.00000
Zn592 Zn 0.19682 0.70038 0.70732 0.00000
O593 O 0.21280 0.77764 0.80309 0.00000
O594 O 0.22275 0.74230 0.68985 0.00000
O595 O 0.09796 0.69309 0.83384 0.00000
O596 O 0.12996 0.67127 0.93609 0.00000
O597 O 0.12462 0.75370 0.94839 0.00000
O598 O 0.24314 0.74193 0.97237 0.00000
O599 O 0.21684 0.70049 0.01898 0.00000
O600 O 0.17243 0.76978 0.99401 0.00000
C601 C 0.22377 0.76955 0.72232 0.00000
O602 O 0.15975 0.72111 0.62974 0.00000
O603 O 0.12704 0.74879 0.72127 0.00000
O604 O 0.17869 0.71278 0.84058 0.00000
C605 C 0.10623 0.67083 0.88922 0.00000
C606 C 0.24057 0.71602 0.01740 0.00000
C607 C 0.13836 0.74082 0.64083 0.00000
loop_
_geom_bond_atom_site_label_1
_geom_bond_atom_site_label_2
_geom_bond_distance
_geom_bond_site_symmetry_2
_ccdc_geom_bond_type
Zn0 O6 1.959 . S
Zn0 O8 1.980 . S
Zn0 O14 1.931 . S
Zn0 O15 1.976 . S
Zn1 O4 1.931 . S
Zn1 O9 1.960 . S
Zn1 O11 1.980 . S
Zn1 O15 1.976 . S
C2 O8 1.223 . A
C2 O11 1.223 . A
Zn3 O5 2.073 . S
Zn3 O13 2.073 . S
Zn3 O15 2.059 . S
O4 C12 1.254 . A
O5 C12 1.225 . A
O6 C16 1.254 . S
O7 C16 1.185 . D
O9 C17 1.254 . S
O10 C17 1.185 . D
O13 C18 1.225 . A
O14 C18 1.254 . A
Zn19 O25 1.959 . S
Zn19 O27 1.980 . S
Zn19 O33 1.931 . S
Zn19 O34 1.976 . S
Zn20 O23 1.931 . S
Zn20 O28 1.960 . S
Zn20 O30 1.980 . S
Zn20 O34 1.976 . S
C21 O27 1.223 1_556 A
C21 O30 1.223 1_556 A
Zn22 O24 2.073 . S
Zn22 O32 2.073 . S
Zn22 O34 2.059 . S
O23 C31 1.254 . A
O24 C31 1.225 . A
O25 C35 1.254 . S
O26 C35 1.185 . D
O28 C36 1.254 1_554 S
O29 C36 1.185 . D
O32 C37 1.225 . A
O33 C37 1.254 . A
Zn38 O44 1.959 . S
Zn38 O46 1.980 1_655 S
Zn38 O52 1.931 . S
Zn38 O53 1.976 . S
Zn39 O42 1.931 1_655 S
Zn39 O47 1.960 . S
Zn39 O49 1.980 1_655 S
Zn39 O53 1.976 . S
C40 O46 1.223 . A
C40 O49 1.223 . A
Zn41 O43 2.073 . S
Zn41 O51 2.073 . S
Zn41 O53 2.059 . S
O42 C50 1.254 . A
O43 C50 1.225 1_655 A
O44 C54 1.254 . S
O45 C54 1.185 . D
O47 C55 1.254 . S
O48 C55 1.185 . D
O51 C56 1.225 . A
O52 C56 1.254 . A
Zn57 O63 1.959 . S
Zn57 O65 1.980 . S
Zn57 O71 1.931 . S
Zn57 O72 1.976 . S
Zn58 O61 1.931 . S
Zn58 O66 1.960 . S
Zn58 O68 1.980 . S
Zn58 O72 1.976 . S
C59 O65 1.223 1_554 A
C59 O68 1.223 1_554 A
Zn60 O62 2.073 . S
Zn60 O70 2.073 . S
Zn60 O72 2.059 . S
O61 C69 1.254 . A
O62 C69 1.225 . A
O63 C73 1.254 . S
O64 C73 1.185 . D
O66 C74 1.254 1_556 S
O67 C74 1.185 . D
O70 C75 1.225 . A
O71 C75 1.254 . A
Zn76 O82 1.959 . S
Zn76 O84 1.980 1_455 S
Zn76 O90 1.931 . S
Zn76 O91 1.976 . S
Zn77 O80 1.931 1_455 S
Zn77 O85 1.960 . S
Zn77 O87 1.980 1_455 S
Zn77 O91 1.976 . S
C78 O84 1.223 . A
C78 O87 1.223 . A
Zn79 O81 2.073 . S
Zn79 O89 2.073 . S
Zn79 O91 2.059 . S
O80 C88 1.254 . A
O81 C88 1.225 1_455 A
O82 C92 1.254 . S
O83 C92 1.185 . D
O85 C93 1.254 . S
O86 C93 1.185 . D
O89 C94 1.225 . A
O90 C94 1.254 . A
Zn95 O101 1.959 . S
Zn95 O103 1.980 . S
Zn95 O109 1.931 . S
Zn95 O110 1.976 . S
Zn96 O99 1.931 . S
Zn96 O104 1.960 . S
Zn96 O106 1.980 . S
Zn96 O110 1.976 . S
C97 O103 1.223 . A
C97 O106 1.223 . A
Zn98 O100 2.073 . S
Zn98 O108 2.073 . S
Zn98 O110 2.059 . S
O99 C107 1.254 . A
O100 C107 1.225 . A
O101 C111 1.254 . S
O102 C111 1.185 . D
O104 C112 1.254 . S
O105 C112 1.185 . D
O108 C113 1.225 . A
O109 C113 1.254 . A
Zn114 O120 1.959 . S
Zn114 O122 1.980 . S
Zn114 O128 1.931 . S
Zn114 O129 1.976 . S
Zn115 O118 1.931 . S
Zn115 O123 1.960 . S
Zn115 O125 1.980 . S
Zn115 O129 1.976 . S
C116 O122 1.223 . A
C116 O125 1.223 . A
Zn117 O119 2.073 . S
Zn117 O127 2.073 . S
Zn117 O129 2.059 . S
O118 C126 1.254 . A
O119 C126 1.225 . A
O120 C130 1.254 . S
O121 C130 1.185 . D
O123 C131 1.254 . S
O124 C131 1.185 . D
O127 C132 1.225 . A
O128 C132 1.254 . A
Zn133 O139 1.959 . S
Zn133 O141 1.980 1_455 S
Zn133 O147 1.931 1_554 S
Zn133 O148 1.976 . S
Zn134 O137 1.931 1_455 S
Zn134 O142 1.960 . S
Zn134 O144 1.980 1_455 S
Zn134 O148 1.976 . S
C135 O141 1.223 . A
C135 O144 1.223 . A
Zn136 O138 2.073 . S
Zn136 O146 2.073 . S
Zn136 O148 2.059 1_556 S
O137 C145 1.254 1_554 A
O138 C145 1.225 1_455 A
O139 C149 1.254 . S
O140 C149 1.185 . D
O142 C150 1.254 . S
O143 C150 1.185 . D
O146 C151 1.225 . A
O147 C151 1.254 . A
Zn152 O158 1.959 . S
Zn152 O160 1.980 . S
Zn152 O166 1.931 . S
Zn152 O167 1.976 . S
Zn153 O156 1.931 . S
Zn153 O161 1.960 . S
Zn153 O163 1.980 . S
Zn153 O167 1.976 . S
C154 O160 1.223 . A
C154 O163 1.223 . A
Zn155 O157 2.073 . S
Zn155 O165 2.073 . S
Zn155 O167 2.059 . S
O156 C164 1.254 . A
O157 C164 1.225 . A
O158 C168 1.254 . S
O159 C168 1.185 . D
O161 C169 1.254 . S
O162 C169 1.185 . D
O165 C170 1.225 . A
O166 C170 1.254 . A
Zn171 O177 1.959 . S
Zn171 O179 1.980 . S
Zn171 O185 1.931 1_556 S
Zn171 O186 1.976 . S
Zn172 O175 1.931 . S
Zn172 O180 1.960 . S
Zn172 O182 1.980 . S
Zn172 O186 1.976 . S
C173 O179 1.223 . A
C173 O182 1.223 . A
Zn174 O176 2.073 . S
Zn174 O184 2.073 . S
Zn174 O186 2.059 1_554 S
O175 C183 1.254 1_556 A
O176 C183 1.225 . A
O177 C187 1.254 . S
O178 C187 1.185 . D
O180 C188 1.254 . S
O181 C188 1.185 . D
O184 C189 1.225 . A
O185 C189 1.254 . A
Zn190 O196 1.959 . S
Zn190 O198 1.980 1_455 S
Zn190 O204 1.931 . S
Zn190 O205 1.976 . S
Zn191 O194 1.931 1_455 S
Zn191 O199 1.960 . S
Zn191 O201 1.980 1_455 S
Zn191 O205 1.976 . S
C192 O198 1.223 . A
C192 O201 1.223 . A
Zn193 O195 2.073 . S
Zn193 O203 2.073 . S
Zn193 O205 2.059 . S
O194 C202 1.254 . A
O195 C202 1.225 1_455 A
O196 C206 1.254 . S
O197 C206 1.185 . D
O199 C207 1.254 . S
O200 C207 1.185 . D
O203 C208 1.225 . A
O204 C208 1.254 . A
Zn209 O215 1.959 . S
Zn209 O217 1.980 . S
Zn209 O223 1.931 . S
Zn209 O224 1.976 . S
Zn210 O213 1.931 . S
Zn210 O218 1.960 . S
Zn210 O220 1.980 . S
Zn210 O224 1.976 . S
C211 O217 1.223 . A
C211 O220 1.223 . A
Zn212 O214 2.073 . S
Zn212 O222 2.073 . S
Zn212 O224 2.059 . S
O213 C221 1.254 . A
O214 C221 1.225 . A
O215 C225 1.254 . S
O216 C225 1.185 . D
O218 C226 1.254 . S
O219 C226 1.185 . D
O222 C227 1.225 . A
O223 C227 1.254 . A
Zn228 O234 1.959 . S
Zn228 O236 1.980 . S
Zn228 O242 1.931 . S
Zn228 O243 1.976 . S
Zn229 O232 1.931 . S
Zn229 O237 1.960 . S
Zn229 O239 1.980 . S
Zn229 O243 1.976 . S
C230 O236 1.223 1_556 A
C230 O239 1.223 1_556 A
Zn231 O233 2.073 . S
Zn231 O241 2.073 . S
Zn231 O243 2.059 . S
O232 C240 1.254 . A
O233 C240 1.225 . A
O234 C244 1.254 . S
O235 C244 1.185 . D
O237 C245 1.254 1_554 S
O238 C245 1.185 . D
O241 C246 1.225 . A
O242 C246 1.254 . A
Zn247 O253 1.959 . S
Zn247 O255 1.980 1_655 S
Zn247 O261 1.931 1_556 S
Zn247 O262 1.976 . S
Zn248 O251 1.931 1_655 S
Zn248 O256 1.960 . S
Zn248 O258 1.980 1_655 S
Zn248 O262 1.976 . S
C249 O255 1.223 . A
C249 O258 1.223 . A
Zn250 O252 2.073 . S
Zn250 O260 2.073 . S
Zn250 O262 2.059 1_554 S
O251 C259 1.254 1_556 A
O252 C259 1.225 1_655 A
O253 C263 1.254 . S
O254 C263 1.185 . D
O256 C264 1.254 . S
O257 C264 1.185 . D
O260 C265 1.225 . A
O261 C265 1.254 . A
Zn266 O272 1.959 . S
Zn266 O274 1.980 . S
Zn266 O280 1.931 . S
Zn266 O281 1.976 . S
Zn267 O270 1.931 . S
Zn267 O275 1.960 . S
Zn267 O277 1.980 . S
Zn267 O281 1.976 . S
C268 O274 1.223 . A
C268 O277 1.223 . A
Zn269 O271 2.073 . S
Zn269 O279 2.073 . S
Zn269 O281 2.059 . S
O270 C278 1.254 . A
O271 C278 1.225 . A
O272 C282 1.254 . S
O273 C282 1.185 . D
O275 C283 1.254 . S
O276 C283 1.185 . D
O279 C284 1.225 . A
O280 C284 1.254 . A
Zn285 O291 1.959 . S
Zn285 O293 1.980 . S
Zn285 O299 1.931 . S
Zn285 O300 1.976 . S
Zn286 O289 1.931 . S
Zn286 O294 1.960 . S
Zn286 O296 1.980 . S
Zn286 O300 1.976 . S
C287 O293 1.223 . A
C287 O296 1.223 . A
Zn288 O290 2.073 . S
Zn288 O298 2.073 . S
Zn288 O300 2.059 . S
O289 C297 1.254 . A
O290 C297 1.225 . A
O291 C301 1.254 . S
O292 C301 1.185 . D
O294 C302 1.254 . S
O295 C302 1.185 . D
O298 C303 1.225 . A
O299 C303 1.254 . A
Zn304 O310 1.959 . S
Zn304 O312 1.980 . S
Zn304 O318 1.931 1_554 S
Zn304 O319 1.976 . S
Zn305 O308 1.931 . S
Zn305 O313 1.960 . S
Zn305 O315 1.980 . S
Zn305 O319 1.976 . S
C306 O312 1.223 . A
C306 O315 1.223 . A
Zn307 O309 2.073 . S
Zn307 O317 2.073 . S
Zn307 O319 2.059 1_556 S
O308 C316 1.254 1_554 A
O309 C316 1.225 . A
O310 C320 1.254 . S
O311 C320 1.185 . D
O313 C321 1.254 . S
O314 C321 1.185 . D
O317 C322 1.225 . A
O318 C322 1.254 . A
Zn323 O329 1.959 . S
Zn323 O331 1.980 . S
Zn323 O337 1.931 . S
Zn323 O338 1.976 . S
Zn324 O327 1.931 . S
Zn324 O332 1.960 . S
Zn324 O334 1.980 . S
Zn324 O338 1.976 . S
C325 O331 1.223 1_554 A
C325 O334 1.223 1_554 A
Zn326 O328 2.073 . S
Zn326 O336 2.073 . S
Zn326 O338 2.059 . S
O327 C335 1.254 . A
O328 C335 1.225 . A
O329 C339 1.254 . S
O330 C339 1.185 . D
O332 C340 1.254 1_556 S
O333 C340 1.185 . D
O336 C341 1.225 . A
O337 C341 1.254 . A
Zn342 O348 1.959 . S
Zn342 O350 1.980 . S
Zn342 O356 1.931 . S
Zn342 O357 1.976 . S
Zn343 O346 1.931 . S
Zn343 O351 1.960 . S
Zn343 O353 1.980 . S
Zn343 O357 1.976 . S
C344 O350 1.223 . A
C344 O353 1.223 . A
Zn345 O347 2.073 . S
Zn345 O355 2.073 . S
Zn345 O357 2.059 . S
O346 C354 1.254 . A
O347 C354 1.225 . A
O348 C358 1.254 . S
O349 C358 1.185 . D
O351 C359 1.254 . S
O352 C359 1.185 . D
O355 C360 1.225 . A
O356 C360 1.254 . A
Zn361 O367 1.959 . S
Zn361 O369 1.980 . S
Zn361 O375 1.931 . S
Zn361 O376 1.976 . S
Zn362 O365 1.931 . S
Zn362 O370 1.960 . S
Zn362 O372 1.980 . S
Zn362 O376 1.976 . S
C363 O369 1.223 1_554 A
C363 O372 1.223 1_554 A
Zn364 O366 2.073 . S
Zn364 O374 2.073 . S
Zn364 O376 2.059 . S
O365 C373 1.254 . A
O366 C373 1.225 . A
O367 C377 1.254 . S
O368 C377 1.185 . D
O370 C378 1.254 1_556 S
O371 C378 1.185 . D
O374 C379 1.225 . A
O375 C379 1.254 . A
Zn380 O386 1.959 . S
Zn380 O388 1.980 1_655 S
Zn380 O394 1.931 1_554 S
Zn380 O395 1.976 . S
Zn381 O384 1.931 1_655 S
Zn381 O389 1.960 . S
Zn381 O391 1.980 1_655 S
Zn381 O395 1.976 . S
C382 O388 1.223 . A
C382 O391 1.223 . A
Zn383 O385 2.073 . S
Zn383 O393 2.073 . S
Zn383 O395 2.059 1_556 S
O384 C392 1.254 1_554 A
O385 C392 1.225 1_655 A
O386 C396 1.254 . S
O387 C396 1.185 . D
O389 C397 1.254 . S
O390 C397 1.185 . D
O393 C398 1.225 . A
O394 C398 1.254 . A
Zn399 O405 1.959 . S
Zn399 O407 1.980 . S
Zn399 O413 1.931 . S
Zn399 O414 1.976 . S
Zn400 O403 1.931 . S
Zn400 O408 1.960 . S
Zn400 O410 1.980 . S
Zn400 O414 1.976 . S
C401 O407 1.223 . A
C401 O410 1.223 . A
Zn402 O404 2.073 . S
Zn402 O412 2.073 . S
Zn402 O414 2.059 . S
O403 C411 1.254 . A
O404 C411 1.225 . A
O405 C415 1.254 . S
O406 C415 1.185 . D
O408 C416 1.254 . S
O409 C416 1.185 . D
O412 C417 1.225 . A
O413 C417 1.254 . A
Zn418 O424 1.959 . S
Zn418 O426 1.980 . S
Zn418 O432 1.931 1_556 S
Zn418 O433 1.976 . S
Zn419 O422 1.931 . S
Zn419 O427 1.960 . S
Zn419 O429 1.980 . S
Zn419 O433 1.976 . S
C420 O426 1.223 . A
C420 O429 1.223 . A
Zn421 O423 2.073 . S
Zn421 O431 2.073 . S
Zn421 O433 2.059 1_554 S
O422 C430 1.254 1_556 A
O423 C430 1.225 . A
O424 C434 1.254 . S
O425 C434 1.185 . D
O427 C435 1.254 . S
O428 C435 1.185 . D
O431 C436 1.225 . A
O432 C436 1.254 . A
Zn437 O443 1.959 . S
Zn437 O445 1.980 . S
Zn437 O451 1.931 . S
Zn437 O452 1.976 . S
Zn438 O441 1.931 . S
Zn438 O446 1.960 . S
Zn438 O448 1.980 . S
Zn438 O452 1.976 . S
C439 O445 1.223 1_556 A
C439 O448 1.223 1_556 A
Zn440 O442 2.073 . S
Zn440 O450 2.073 . S
Zn440 O452 2.059 . S
O441 C449 1.254 . A
O442 C449 1.225 . A
O443 C453 1.254 . S
O444 C453 1.185 . D
O446 C454 1.254 1_554 S
O447 C454 1.185 . D
O450 C455 1.225 . A
O451 C455 1.254 . A
Zn456 O462 1.959 . S
Zn456 O464 1.980 1_655 S
Zn456 O470 1.931 . S
Zn456 O471 1.976 . S
Zn457 O460 1.931 1_655 S
Zn457 O465 1.960 . S
Zn457 O467 1.980 1_655 S
Zn457 O471 1.976 . S
C458 O464 1.223 . A
C458 O467 1.223 . A
Zn459 O461 2.073 . S
Zn459 O469 2.073 . S
Zn459 O471 2.059 . S
O460 C468 1.254 . A
O461 C468 1.225 1_655 A
O462 C472 1.254 . S
O463 C472 1.185 . D
O465 C473 1.254 . S
O466 C473 1.185 . D
O469 C474 1.225 . A
O470 C474 1.254 . A
Zn475 O481 1.959 . S
Zn475 O483 1.980 . S
Zn475 O489 1.931 . S
Zn475 O490 1.976 . S
Zn476 O479 1.931 . S
Zn476 O484 1.960 . S
Zn476 O486 1.980 . S
Zn476 O490 1.976 . S
C477 O483 1.223 . A
C477 O486 1.223 . A
Zn478 O480 2.073 . S
Zn478 O488 2.073 . S
Zn478 O490 2.059 . S
O479 C487 1.254 . A
O480 C487 1.225 . A
O481 C491 1.254 . S
O482 C491 1.185 . D
O484 C492 1.254 . S
O485 C492 1.185 . D
O488 C493 1.225 . A
O489 C493 1.254 . A
Zn494 O500 1.959 . S
Zn494 O502 1.980 . S
Zn494 O508 1.931 . S
Zn494 O509 1.976 . S
Zn495 O498 1.931 . S
Zn495 O503 1.960 . S
Zn495 O505 1.980 . S
Zn495 O509 1.976 . S
C496 O502 1.223 . A
C496 O505 1.223 . A
Zn497 O499 2.073 . S
Zn497 O507 2.073 . S
Zn497 O509 2.059 . S
O498 C506 1.254 . A
O499 C506 1.225 . A
O500 C510 1.254 . S
O501 C510 1.185 . D
O503 C511 1.254 . S
O504 C511 1.185 . D
O507 C512 1.225 . A
O508 C512 1.254 . A
Zn513 O519 1.959 . S
Zn513 O521 1.980 . S
Zn513 O527 1.931 . S
Zn513 O528 1.976 . S
Zn514 O517 1.931 . S
Zn514 O522 1.960 . S
Zn514 O524 1.980 . S
Zn514 O528 1.976 . S
C515 O521 1.223 1_556 A
C515 O524 1.223 1_556 A
Zn516 O518 2.073 . S
Zn516 O526 2.073 . S
Zn516 O528 2.059 . S
O517 C525 1.254 . A
O518 C525 1.225 . A
O519 C529 1.254 . S
O520 C529 1.185 . D
O522 C530 1.254 1_554 S
O523 C530 1.185 . D
O526 C531 1.225 . A
O527 C531 1.254 . A
Zn532 O538 1.959 . S
Zn532 O540 1.980 1_455 S
Zn532 O546 1.931 1_556 S
Zn532 O547 1.976 . S
Zn533 O536 1.931 1_455 S
Zn533 O541 1.960 . S
Zn533 O543 1.980 1_455 S
Zn533 O547 1.976 . S
C534 O540 1.223 . A
C534 O543 1.223 . A
Zn535 O537 2.073 . S
Zn535 O545 2.073 . S
Zn535 O547 2.059 1_554 S
O536 C544 1.254 1_556 A
O537 C544 1.225 1_455 A
O538 C548 1.254 . S
O539 C548 1.185 . D
O541 C549 1.254 . S
O542 C549 1.185 . D
O545 C550 1.225 . A
O546 C550 1.254 . A
Zn551 O557 1.959 . S
Zn551 O559 1.980 . S
Zn551 O565 1.931 . S
Zn551 O566 1.976 . S
Zn552 O555 1.931 . S
Zn552 O560 1.960 . S
Zn552 O562 1.980 . S
Zn552 O566 1.976 . S
C553 O559 1.223 . A
C553 O562 1.223 . A
Zn554 O556 2.073 . S
Zn554 O564 2.073 . S
Zn554 O566 2.059 . S
O555 C563 1.254 . A
O556 C563 1.225 . A
O557 C567 1.254 . S
O558 C567 1.185 . D
O560 C568 1.254 . S
O561 C568 1.185 . D
O564 C569 1.225 . A
O565 C569 1.254 . A
Zn570 O576 1.959 . S
Zn570 O578 1.980 . S
Zn570 O584 1.931 1_554 S
Zn570 O585 1.976 . S
Zn571 O574 1.931 . S
Zn571 O579 1.960 . S
Zn571 O581 1.980 . S
Zn571 O585 1.976 . S
C572 O578 1.223 . A
C572 O581 1.223 . A
Zn573 O575 2.073 . S
Zn573 O583 2.073 . S
Zn573 O585 2.059 1_556 S
O574 C582 1.254 1_554 A
O575 C582 1.225 . A
O576 C586 1.254 . S
O577 C586 1.185 . D
O579 C587 1.254 . S
O580 C587 1.185 . D
O583 C588 1.225 . A
O584 C588 1.254 . A
Zn589 O595 1.959 . S
Zn589 O597 1.980 . S
Zn589 O603 1.931 . S
Zn589 O604 1.976 . S
Zn590 O593 1.931 . S
Zn590 O598 1.960 . S
Zn590 O600 1.980 . S
Zn590 O604 1.976 . S
C591 O597 1.223 1_554 A
C591 O600 1.223 1_554 A
Zn592 O594 2.073 . S
Zn592 O602 2.073 . S
Zn592 O604 2.059 . S
O593 C601 1.254 . A
O594 C601 1.225 . A
O595 C605 1.254 . S
O596 C605 1.185 . D
O598 C606 1.254 1_556 S
O599 C606 1.185 . D
O602 C607 1.225 . A
O603 C607 1.254 . A
C12 C126 2.838 1_545 S
C31 C411 2.839 . S
C50 C88 2.837 1_445 S
C69 C563 2.839 . S
C525 C107 2.839 . S
C259 C145 2.837 1_464 S
C164 C601 2.839 . S
C183 C316 2.838 1_544 S
C468 C202 2.837 1_455 S
C221 C240 2.839 . S
C373 C278 2.839 . S
C297 C449 2.839 . S
C487 C335 2.839 . S
C506 C354 2.837 . S
C392 C544 2.837 1_456 S
C582 C430 2.838 1_556 S
C321 C17 0.923 1_565 S
C36 C340 0.924 1_556 S
C264 C55 0.923 1_565 S
C245 C74 0.924 1_556 S
C150 C93 0.923 1_545 S
C169 C112 0.924 . S
C188 C131 0.923 1_545 S
C549 C207 0.924 . S
C226 C568 0.924 . S
C302 C283 0.924 . S
C359 C435 0.923 . S
C378 C454 0.924 1_554 S
C397 C473 0.923 . S
C416 C492 0.924 . S
C511 C587 0.923 . S
C606 C530 0.924 1_554 S
C16 C301 1.646 . S
C35 C320 1.646 . S
C282 C54 1.646 . S
C73 C187 1.646 . S
C92 C111 1.646 . S
C168 C130 1.646 . S
C244 C149 1.646 . S
C567 C206 1.646 . S
C225 C510 1.646 . S
C339 C263 1.646 . S
C491 C358 1.646 . S
C434 C377 1.646 . S
C453 C396 1.646 . S
C415 C472 1.646 . S
C586 C529 1.646 . S
C605 C548 1.646 . S
C18 C173 1.935 . S
C477 C37 1.935 . S
C56 C135 1.935 . S
C211 C75 1.935 . S
C249 C94 1.935 . S
C591 C113 1.935 . S
C132 C306 1.935 . S
C40 C151 1.935 . S
C515 C170 1.935 . S
C2 C189 1.935 . S
C382 C208 1.935 . S
C227 C59 1.935 . S
C246 C553 1.935 . S
C78 C265 1.935 . S
C284 C439 1.935 . S
C303 C363 1.935 . S
C116 C322 1.935 . S
C341 C401 1.935 . S
C360 C572 1.935 . S
C379 C287 1.935 . S
C398 C192 1.935 . S
C325 C417 1.935 . S
C436 C496 1.935 . S
C455 C268 1.935 . S
C474 C534 1.935 . S
C21 C493 1.935 . S
C420 C512 1.935 . S
C531 C154 1.935 . S
C550 C458 1.935 . S
C569 C230 1.935 . S
C588 C344 1.935 . S
C607 C97 1.934 . S
